download/pglib-opf-master/api/pglib_opf_case240_pserc__api.m
%%%%%%%%%%%%%%%%%%%%%%%%%%%%%%%%%%%%%%%%%%%%%%%%%%%%%%%%%%%%%%%%%%%%%%%%%%%
%%%%                                                                  %%%%%
%%%%    IEEE PES Power Grid Library - Optimal Power Flow - v19.05     %%%%%
%%%%          (https://github.com/power-grid-lib/pglib-opf)           %%%%%
%%%%             Benchmark Group - Active Power Increase              %%%%%
%%%%                         08 - May - 2019                          %%%%%
%%%%                                                                  %%%%%
%%%%%%%%%%%%%%%%%%%%%%%%%%%%%%%%%%%%%%%%%%%%%%%%%%%%%%%%%%%%%%%%%%%%%%%%%%%
function mpc = pglib_opf_case240_pserc__api
mpc.version = '2';
mpc.baseMVA = 100.0;

%% bus data
%	bus_i	type	Pd	Qd	Gs	Bs	area	Vm	Va	baseKV	zone	Vmax	Vmin
mpc.bus = [
	1001	 1	 0.0	 0.0	 0.0	 0.0	 10	    1.00000	    0.00000	 500.0	 1	    1.10000	    0.90000;
	1002	 1	 226.84	 -37.47	 0.0	 0.0	 10	    1.00000	    0.00000	 345.0	 1	    1.10000	    0.90000;
	1003	 1	 2825.92	 366.86	 0.0	 0.0	 10	    1.00000	    0.00000	 230.0	 1	    1.10000	    0.90000;
	1004	 1	 1362.16	 5.52	 0.0	 0.0	 10	    1.00000	    0.00000	 345.0	 1	    1.10000	    0.90000;
	1032	 2	 0.0	 0.0	 0.0	 0.0	 10	    1.00000	    0.00000	 20.0	 1	    1.10000	    0.90000;
	1034	 2	 0.0	 0.0	 0.0	 0.0	 10	    1.00000	    0.00000	 20.0	 1	    1.10000	    0.90000;
	1101	 1	 4527.37	 -137.04	 0.0	 0.0	 10	    1.00000	    0.00000	 500.0	 1	    1.10000	    0.90000;
	1102	 1	 231.56	 23.00	 0.0	 0.0	 10	    1.00000	    0.00000	 345.0	 1	    1.10000	    0.90000;
	1131	 2	 0.0	 0.0	 0.0	 0.0	 10	    1.00000	    0.00000	 20.0	 1	    1.10000	    0.90000;
	1201	 1	 166.99	 -2.01	 0.0	 0.0	 10	    1.00000	    0.00000	 500.0	 1	    1.10000	    0.90000;
	1202	 1	 1149.11	 287.13	 0.0	 0.0	 10	    1.00000	    0.00000	 500.0	 1	    1.10000	    0.90000;
	1232	 2	 0.0	 0.0	 0.0	 0.0	 10	    1.00000	    0.00000	 20.0	 1	    1.10000	    0.90000;
	1301	 1	 3549.63	 352.83	 0.0	 0.0	 10	    1.00000	    0.00000	 500.0	 1	    1.10000	    0.90000;
	1302	 1	 23.04	 2.30	 0.0	 0.0	 10	    1.00000	    0.00000	 500.0	 1	    1.10000	    0.90000;
	1303	 1	 8182.71	 813.35	 0.0	 0.0	 10	    1.00000	    0.00000	 345.0	 1	    1.10000	    0.90000;
	1331	 2	 0.0	 0.0	 0.0	 0.0	 10	    1.00000	    0.00000	 20.0	 1	    1.10000	    0.90000;
	1333	 2	 0.0	 0.0	 0.0	 0.0	 10	    1.00000	    0.00000	 20.0	 1	    1.10000	    0.90000;
	1401	 1	 8576.94	 1524.59	 0.0	 0.0	 10	    1.00000	    0.00000	 500.0	 1	    1.10000	    0.90000;
	1402	 1	 5366.63	 -600.16	 0.0	 0.0	 10	    1.00000	    0.00000	 500.0	 1	    1.10000	    0.90000;
	1403	 1	 0.0	 0.0	 0.0	 0.0	 10	    1.00000	    0.00000	 230.0	 1	    1.10000	    0.90000;
	1431	 2	 0.0	 0.0	 0.0	 0.0	 10	    1.00000	    0.00000	 20.0	 1	    1.10000	    0.90000;
	2000	 1	 2896.61	 287.92	 0.0	 0.0	 20	    1.00000	    0.00000	 230.0	 1	    1.10000	    0.90000;
	2030	 2	 0.0	 0.0	 0.0	 0.0	 20	    1.00000	    0.00000	 20.0	 1	    1.10000	    0.90000;
	2100	 1	 368.97	 54.83	 0.0	 0.0	 21	    1.00000	    0.00000	 230.0	 1	    1.10000	    0.90000;
	2130	 2	 0.0	 0.0	 0.0	 0.0	 21	    1.00000	    0.00000	 20.0	 1	    1.10000	    0.90000;
	2201	 1	 0.0	 0.0	 0.0	 0.0	 22	    1.00000	    0.00000	 500.0	 1	    1.10000	    0.90000;
	2202	 1	 2028.83	 268.56	 0.0	 0.0	 22	    1.00000	    0.00000	 230.0	 1	    1.10000	    0.90000;
	2203	 1	 2242.23	 278.27	 0.0	 0.0	 22	    1.00000	    0.00000	 230.0	 1	    1.10000	    0.90000;
	2233	 2	 0.0	 0.0	 0.0	 0.0	 22	    1.00000	    0.00000	 20.0	 1	    1.10000	    0.90000;
	2301	 1	 0.0	 0.0	 0.0	 0.0	 22	    1.00000	    0.00000	 500.0	 1	    1.10000	    0.90000;
	2302	 1	 0.0	 0.0	 0.0	 0.0	 22	    1.00000	    0.00000	 230.0	 1	    1.10000	    0.90000;
	2332	 2	 0.0	 0.0	 0.0	 0.0	 22	    1.00000	    0.00000	 20.0	 1	    1.10000	    0.90000;
	2400	 1	 1106.70	 76.66	 0.0	 0.0	 24	    1.00000	    0.00000	 500.0	 1	    1.10000	    0.90000;
	2401	 1	 1157.97	 105.21	 0.0	 0.0	 24	    1.00000	    0.00000	 500.0	 1	    1.10000	    0.90000;
	2402	 1	 1417.37	 81.98	 0.0	 0.0	 24	    1.00000	    0.00000	 500.0	 1	    1.10000	    0.90000;
	2403	 1	 1377.98	 38.54	 0.0	 0.0	 24	    1.00000	    0.00000	 500.0	 1	    1.10000	    0.90000;
	2404	 1	 0.0	 0.0	 0.0	 0.0	 24	    1.00000	    0.00000	 500.0	 1	    1.10000	    0.90000;
	2405	 1	 1082.28	 22.90	 0.0	 0.0	 24	    1.00000	    0.00000	 230.0	 1	    1.10000	    0.90000;
	2406	 1	 737.40	 -40.75	 0.0	 0.0	 24	    1.00000	    0.00000	 230.0	 1	    1.10000	    0.90000;
	2407	 1	 1732.77	 -36.53	 0.0	 0.0	 24	    1.00000	    0.00000	 230.0	 1	    1.10000	    0.90000;
	2408	 1	 1743.28	 -72.62	 0.0	 0.0	 24	    1.00000	    0.00000	 230.0	 1	    1.10000	    0.90000;
	2409	 1	 1601.78	 -86.70	 0.0	 0.0	 24	    1.00000	    0.00000	 230.0	 1	    1.10000	    0.90000;
	2410	 1	 2069.30	 58.18	 0.0	 0.0	 24	    1.00000	    0.00000	 230.0	 1	    1.10000	    0.90000;
	2411	 1	 1427.35	 75.95	 0.0	 0.0	 24	    1.00000	    0.00000	 230.0	 1	    1.10000	    0.90000;
	2438	 2	 0.0	 0.0	 0.0	 0.0	 24	    1.00000	    0.00000	 20.0	 1	    1.10000	    0.90000;
	2501	 1	 0.0	 0.0	 0.0	 0.0	 25	    1.00000	    0.00000	 500.0	 1	    1.10000	    0.90000;
	2502	 1	 2369.15	 -91.91	 0.0	 0.0	 25	    1.00000	    0.00000	 230.0	 1	    1.10000	    0.90000;
	2503	 1	 2422.51	 201.99	 0.0	 0.0	 25	    1.00000	    0.00000	 230.0	 1	    1.10000	    0.90000;
	2533	 2	 0.0	 0.0	 0.0	 0.0	 25	    1.00000	    0.00000	 20.0	 1	    1.10000	    0.90000;
	2600	 1	 -1863.90	 0.00	 0.0	 0.0	 90	    1.00000	    0.00000	 500.0	 1	    1.10000	    0.90000;
	2601	 1	 0.0	 0.0	 0.0	 0.0	 26	    1.00000	    0.00000	 500.0	 1	    1.10000	    0.90000;
	2602	 1	 130.29	 12.96	 0.0	 0.0	 26	    1.00000	    0.00000	 500.0	 1	    1.10000	    0.90000;
	2603	 1	 0.0	 0.0	 0.0	 0.0	 26	    1.00000	    0.00000	 500.0	 1	    1.10000	    0.90000;
	2604	 1	 2050.78	 0.00	 0.0	 0.0	 90	    1.00000	    0.00000	 345.0	 1	    1.10000	    0.90000;
	2605	 1	 0.0	 0.0	 0.0	 0.0	 26	    1.00000	    0.00000	 287.0	 1	    1.10000	    0.90000;
	2606	 1	 0.0	 0.0	 0.0	 0.0	 26	    1.00000	    0.00000	 287.0	 1	    1.10000	    0.90000;
	2607	 1	 0.0	 0.0	 0.0	 0.0	 26	    1.00000	    0.00000	 287.0	 1	    1.10000	    0.90000;
	2608	 1	 130.29	 12.96	 0.0	 0.0	 26	    1.00000	    0.00000	 230.0	 1	    1.10000	    0.90000;
	2609	 1	 175.89	 26.80	 0.0	 0.0	 26	    1.00000	    0.00000	 230.0	 1	    1.10000	    0.90000;
	2610	 1	 130.29	 12.96	 0.0	 0.0	 26	    1.00000	    0.00000	 230.0	 1	    1.10000	    0.90000;
	2611	 1	 130.29	 12.96	 0.0	 0.0	 26	    1.00000	    0.00000	 230.0	 1	    1.10000	    0.90000;
	2612	 1	 157.65	 24.82	 0.0	 0.0	 26	    1.00000	    0.00000	 230.0	 1	    1.10000	    0.90000;
	2613	 1	 416.93	 64.53	 0.0	 0.0	 26	    1.00000	    0.00000	 230.0	 1	    1.10000	    0.90000;
	2614	 1	 179.80	 27.80	 0.0	 0.0	 26	    1.00000	    0.00000	 230.0	 1	    1.10000	    0.90000;
	2615	 1	 1052.48	 131.15	 0.0	 0.0	 26	    1.00000	    0.00000	 230.0	 1	    1.10000	    0.90000;
	2616	 1	 152.44	 23.83	 0.0	 0.0	 26	    1.00000	    0.00000	 230.0	 1	    1.10000	    0.90000;
	2617	 1	 157.65	 24.82	 0.0	 0.0	 26	    1.00000	    0.00000	 230.0	 1	    1.10000	    0.90000;
	2618	 1	 881.30	 -6.16	 0.0	 0.0	 26	    1.00000	    0.00000	 230.0	 1	    1.10000	    0.90000;
	2619	 1	 -2773.83	 0.00	 0.0	 0.0	 90	    1.00000	    0.00000	 230.0	 1	    1.10000	    0.90000;
	2620	 1	 267.35	 17.47	 0.0	 0.0	 26	    1.00000	    0.00000	 230.0	 1	    1.10000	    0.90000;
	2621	 1	 235.49	 -62.74	 0.0	 0.0	 26	    1.00000	    0.00000	 138.0	 1	    1.10000	    0.90000;
	2630	 2	 0.0	 0.0	 0.0	 0.0	 26	    1.00000	    0.00000	 20.0	 1	    1.10000	    0.90000;
	2631	 2	 0.0	 0.0	 0.0	 0.0	 26	    1.00000	    0.00000	 20.0	 1	    1.10000	    0.90000;
	2634	 2	 0.0	 0.0	 0.0	 0.0	 90	    1.00000	    0.00000	 20.0	 1	    1.10000	    0.90000;
	2637	 2	 0.0	 0.0	 0.0	 0.0	 26	    1.00000	    0.00000	 20.0	 1	    1.10000	    0.90000;
	2638	 2	 0.0	 0.0	 0.0	 0.0	 26	    1.00000	    0.00000	 20.0	 1	    1.10000	    0.90000;
	2901	 1	 0.0	 0.0	 0.0	 0.0	 24	    1.00000	    0.00000	 500.0	 1	    1.10000	    0.90000;
	2902	 1	 0.0	 0.0	 0.0	 0.0	 24	    1.00000	    0.00000	 500.0	 1	    1.10000	    0.90000;
	3101	 1	 447.91	 52.83	 0.0	 0.0	 31	    1.00000	    0.00000	 230.0	 1	    1.10000	    0.90000;
	3102	 1	 209.27	 24.93	 0.0	 0.0	 31	    1.00000	    0.00000	 230.0	 1	    1.10000	    0.90000;
	3103	 1	 550.68	 59.78	 0.0	 0.0	 32	    1.00000	    0.00000	 230.0	 1	    1.10000	    0.90000;
	3104	 1	 406.79	 40.13	 0.0	 0.0	 31	    1.00000	    0.00000	 115.0	 1	    1.10000	    0.90000;
	3105	 1	 314.05	 49.09	 0.0	 0.0	 31	    1.00000	    0.00000	 115.0	 1	    1.10000	    0.90000;
	3133	 2	 0.0	 0.0	 0.0	 0.0	 32	    1.00000	    0.00000	 20.0	 1	    1.10000	    0.90000;
	3135	 2	 0.0	 0.0	 0.0	 0.0	 31	    1.00000	    0.00000	 20.0	 1	    1.10000	    0.90000;
	3201	 1	 606.93	 97.85	 0.0	 0.0	 32	    1.00000	    0.00000	 230.0	 1	    1.10000	    0.90000;
	3202	 1	 769.28	 83.47	 0.0	 0.0	 32	    1.00000	    0.00000	 230.0	 1	    1.10000	    0.90000;
	3203	 1	 862.35	 158.48	 0.0	 0.0	 32	    1.00000	    0.00000	 230.0	 1	    1.10000	    0.90000;
	3204	 1	 877.69	 95.31	 0.0	 0.0	 32	    1.00000	    0.00000	 230.0	 1	    1.10000	    0.90000;
	3205	 1	 716.63	 77.78	 0.0	 0.0	 32	    1.00000	    0.00000	 230.0	 1	    1.10000	    0.90000;
	3234	 2	 0.0	 0.0	 0.0	 0.0	 32	    1.00000	    0.00000	 20.0	 1	    1.10000	    0.90000;
	3301	 1	 0.0	 0.0	 0.0	 0.0	 32	    1.00000	    0.00000	 500.0	 1	    1.10000	    0.90000;
	3302	 1	 453.19	 85.79	 0.0	 0.0	 32	    1.00000	    0.00000	 230.0	 1	    1.10000	    0.90000;
	3303	 1	 820.76	 150.72	 0.0	 0.0	 32	    1.00000	    0.00000	 230.0	 1	    1.10000	    0.90000;
	3304	 1	 700.12	 122.62	 0.0	 0.0	 32	    1.00000	    0.00000	 230.0	 1	    1.10000	    0.90000;
	3305	 1	 564.73	 61.23	 0.0	 0.0	 32	    1.00000	    0.00000	 230.0	 1	    1.10000	    0.90000;
	3333	 2	 0.0	 0.0	 0.0	 0.0	 32	    1.00000	    0.00000	 20.0	 1	    1.10000	    0.90000;
	3401	 1	 731.91	 135.91	 0.0	 0.0	 34	    1.00000	    0.00000	 230.0	 1	    1.10000	    0.90000;
	3402	 1	 0.0	 0.0	 0.0	 0.0	 34	    1.00000	    0.00000	 230.0	 1	    1.10000	    0.90000;
	3403	 1	 677.13	 73.58	 0.0	 0.0	 34	    1.00000	    0.00000	 230.0	 1	    1.10000	    0.90000;
	3404	 1	 575.42	 62.08	 0.0	 0.0	 34	    1.00000	    0.00000	 230.0	 1	    1.10000	    0.90000;
	3405	 1	 589.11	 63.72	 0.0	 0.0	 34	    1.00000	    0.00000	 230.0	 1	    1.10000	    0.90000;
	3432	 2	 0.0	 0.0	 0.0	 0.0	 34	    1.00000	    0.00000	 20.0	 1	    1.10000	    0.90000;
	3433	 2	 0.0	 0.0	 0.0	 0.0	 34	    1.00000	    0.00000	 20.0	 1	    1.10000	    0.90000;
	3501	 1	 820.24	 89.02	 0.0	 0.0	 35	    1.00000	    0.00000	 230.0	 1	    1.10000	    0.90000;
	3531	 2	 0.0	 0.0	 0.0	 0.0	 35	    1.00000	    0.00000	 20.0	 1	    1.10000	    0.90000;
	3601	 1	 137.61	 14.84	 0.0	 0.0	 36	    1.00000	    0.00000	 115.0	 1	    1.10000	    0.90000;
	3631	 2	 0.0	 0.0	 0.0	 0.0	 36	    1.00000	    0.00000	 20.0	 1	    1.10000	    0.90000;
	3701	 1	 416.08	 15.85	 0.0	 0.0	 37	    1.00000	    0.00000	 115.0	 1	    1.10000	    0.90000;
	3731	 2	 0.0	 0.0	 0.0	 0.0	 37	    1.00000	    0.00000	 20.0	 1	    1.10000	    0.90000;
	3801	 1	 250.95	 47.41	 0.0	 0.0	 38	    1.00000	    0.00000	 500.0	 1	    1.10000	    0.90000;
	3802	 1	 0.0	 0.0	 0.0	 0.0	 38	    1.00000	    0.00000	 500.0	 1	    1.10000	    0.90000;
	3803	 1	 0.0	 0.0	 0.0	 0.0	 38	    1.00000	    0.00000	 500.0	 1	    1.10000	    0.90000;
	3804	 1	 293.50	 55.32	 0.0	 0.0	 38	    1.00000	    0.00000	 230.0	 1	    1.10000	    0.90000;
	3805	 1	 655.38	 163.11	 0.0	 0.0	 38	    1.00000	    0.00000	 230.0	 1	    1.10000	    0.90000;
	3806	 1	 380.04	 41.37	 0.0	 0.0	 38	    1.00000	    0.00000	 230.0	 1	    1.10000	    0.90000;
	3831	 2	 0.0	 0.0	 0.0	 0.0	 38	    1.00000	    0.00000	 20.0	 1	    1.10000	    0.90000;
	3835	 2	 0.0	 0.0	 0.0	 0.0	 38	    1.00000	    0.00000	 20.0	 1	    1.10000	    0.90000;
	3836	 2	 0.0	 0.0	 0.0	 0.0	 38	    1.00000	    0.00000	 20.0	 1	    1.10000	    0.90000;
	3891	 1	 0.0	 0.0	 0.0	 0.0	 38	    1.00000	    0.00000	 500.0	 1	    1.10000	    0.90000;
	3892	 1	 0.0	 0.0	 0.0	 0.0	 38	    1.00000	    0.00000	 500.0	 1	    1.10000	    0.90000;
	3893	 1	 0.0	 0.0	 0.0	 0.0	 38	    1.00000	    0.00000	 500.0	 1	    1.10000	    0.90000;
	3894	 1	 0.0	 0.0	 0.0	 0.0	 38	    1.00000	    0.00000	 500.0	 1	    1.10000	    0.90000;
	3895	 1	 0.0	 0.0	 0.0	 0.0	 38	    1.00000	    0.00000	 500.0	 1	    1.10000	    0.90000;
	3896	 1	 0.0	 0.0	 0.0	 0.0	 38	    1.00000	    0.00000	 500.0	 1	    1.10000	    0.90000;
	3897	 1	 0.0	 0.0	 0.0	 0.0	 38	    1.00000	    0.00000	 500.0	 1	    1.10000	    0.90000;
	3901	 1	 0.0	 0.0	 0.0	 0.0	 39	    1.00000	    0.00000	 500.0	 1	    1.10000	    0.90000;
	3902	 1	 200.78	 38.25	 0.0	 0.0	 39	    1.00000	    0.00000	 500.0	 1	    1.10000	    0.90000;
	3903	 1	 279.86	 30.27	 0.0	 0.0	 39	    1.00000	    0.00000	 500.0	 1	    1.10000	    0.90000;
	3904	 1	 0.0	 0.0	 0.0	 0.0	 39	    1.00000	    0.00000	 500.0	 1	    1.10000	    0.90000;
	3905	 1	 0.0	 0.0	 0.0	 0.0	 39	    1.00000	    0.00000	 500.0	 1	    1.10000	    0.90000;
	3906	 1	 0.0	 0.0	 0.0	 0.0	 39	    1.00000	    0.00000	 500.0	 1	    1.10000	    0.90000;
	3907	 1	 605.46	 63.07	 0.0	 0.0	 39	    1.00000	    0.00000	 230.0	 1	    1.10000	    0.90000;
	3908	 1	 262.84	 24.72	 0.0	 0.0	 39	    1.00000	    0.00000	 230.0	 1	    1.10000	    0.90000;
	3909	 1	 224.36	 39.78	 0.0	 0.0	 39	    1.00000	    0.00000	 230.0	 1	    1.10000	    0.90000;
	3910	 1	 317.38	 34.44	 0.0	 0.0	 39	    1.00000	    0.00000	 230.0	 1	    1.10000	    0.90000;
	3911	 1	 305.96	 47.11	 0.0	 0.0	 39	    1.00000	    0.00000	 230.0	 1	    1.10000	    0.90000;
	3912	 1	 174.50	 -0.63	 0.0	 0.0	 39	    1.00000	    0.00000	 230.0	 1	    1.10000	    0.90000;
	3913	 1	 432.48	 43.44	 0.0	 0.0	 39	    1.00000	    0.00000	 230.0	 1	    1.10000	    0.90000;
	3914	 1	 298.89	 52.55	 0.0	 0.0	 39	    1.00000	    0.00000	 230.0	 1	    1.10000	    0.90000;
	3915	 1	 333.94	 53.40	 0.0	 0.0	 39	    1.00000	    0.00000	 230.0	 1	    1.10000	    0.90000;
	3916	 1	 155.00	 0.00	 0.0	 0.0	 39	    1.00000	    0.00000	 230.0	 1	    1.10000	    0.90000;
	3917	 1	 312.59	 43.99	 0.0	 0.0	 39	    1.00000	    0.00000	 230.0	 1	    1.10000	    0.90000;
	3918	 1	 419.01	 75.46	 0.0	 0.0	 39	    1.00000	    0.00000	 230.0	 1	    1.10000	    0.90000;
	3919	 1	 242.14	 24.09	 0.0	 0.0	 39	    1.00000	    0.00000	 230.0	 1	    1.10000	    0.90000;
	3920	 1	 226.38	 23.68	 0.0	 0.0	 39	    1.00000	    0.00000	 230.0	 1	    1.10000	    0.90000;
	3921	 1	 198.02	 34.82	 0.0	 0.0	 39	    1.00000	    0.00000	 230.0	 1	    1.10000	    0.90000;
	3922	 1	 332.61	 31.92	 0.0	 0.0	 39	    1.00000	    0.00000	 230.0	 1	    1.10000	    0.90000;
	3923	 1	 523.71	 67.02	 0.0	 0.0	 39	    1.00000	    0.00000	 230.0	 1	    1.10000	    0.90000;
	3924	 1	 436.34	 47.16	 0.0	 0.0	 39	    1.00000	    0.00000	 230.0	 1	    1.10000	    0.90000;
	3925	 1	 0.0	 0.0	 0.0	 0.0	 39	    1.00000	    0.00000	 115.0	 1	    1.10000	    0.90000;
	3926	 1	 350.86	 16.67	 0.0	 0.0	 39	    1.00000	    0.00000	 115.0	 1	    1.10000	    0.90000;
	3931	 2	 0.0	 0.0	 0.0	 0.0	 39	    1.00000	    0.00000	 20.0	 1	    1.10000	    0.90000;
	3932	 2	 0.0	 0.0	 0.0	 0.0	 39	    1.00000	    0.00000	 20.0	 1	    1.10000	    0.90000;
	3933	 3	 0.0	 0.0	 0.0	 0.0	 39	    1.00000	    0.00000	 20.0	 1	    1.10000	    0.90000;
	4001	 1	 0.0	 0.0	 0.0	 0.0	 40	    1.00000	    0.00000	 500.0	 1	    1.10000	    0.90000;
	4002	 1	 221.37	 22.00	 0.0	 0.0	 40	    1.00000	    0.00000	 500.0	 1	    1.10000	    0.90000;
	4003	 1	 0.0	 0.0	 0.0	 0.0	 40	    1.00000	    0.00000	 500.0	 1	    1.10000	    0.90000;
	4004	 1	 354.93	 35.30	 0.0	 0.0	 40	    1.00000	    0.00000	 500.0	 1	    1.10000	    0.90000;
	4005	 1	 630.08	 157.42	 0.0	 0.0	 40	    1.00000	    0.00000	 500.0	 1	    1.10000	    0.90000;
	4006	 1	 0.0	 0.0	 0.0	 0.0	 40	    1.00000	    0.00000	 500.0	 1	    1.10000	    0.90000;
	4007	 1	 0.0	 0.0	 0.0	 0.0	 40	    1.00000	    0.00000	 500.0	 1	    1.10000	    0.90000;
	4008	 1	 374.21	 37.20	 0.0	 0.0	 40	    1.00000	    0.00000	 345.0	 1	    1.10000	    0.90000;
	4009	 1	 2898.65	 431.39	 0.0	 0.0	 40	    1.00000	    0.00000	 230.0	 1	    1.10000	    0.90000;
	4010	 1	 3133.61	 0.00	 0.0	 0.0	 90	    1.00000	    0.00000	 230.0	 1	    1.10000	    0.90000;
	4031	 2	 0.0	 0.0	 0.0	 0.0	 40	    1.00000	    0.00000	 20.0	 1	    1.10000	    0.90000;
	4035	 2	 0.0	 0.0	 0.0	 0.0	 40	    1.00000	    0.00000	 20.0	 1	    1.10000	    0.90000;
	4039	 2	 0.0	 0.0	 0.0	 0.0	 40	    1.00000	    0.00000	 20.0	 1	    1.10000	    0.90000;
	4090	 1	 0.0	 0.0	 0.0	 0.0	 40	    1.00000	    0.00000	 500.0	 1	    1.10000	    0.90000;
	4091	 1	 0.0	 0.0	 0.0	 0.0	 40	    1.00000	    0.00000	 500.0	 1	    1.10000	    0.90000;
	4092	 1	 0.0	 0.0	 0.0	 0.0	 40	    1.00000	    0.00000	 500.0	 1	    1.10000	    0.90000;
	4093	 1	 0.0	 0.0	 0.0	 0.0	 40	    1.00000	    0.00000	 500.0	 1	    1.10000	    0.90000;
	4094	 1	 0.0	 0.0	 0.0	 0.0	 40	    1.00000	    0.00000	 500.0	 1	    1.10000	    0.90000;
	4095	 1	 0.0	 0.0	 0.0	 0.0	 40	    1.00000	    0.00000	 500.0	 1	    1.10000	    0.90000;
	4096	 1	 0.0	 0.0	 0.0	 0.0	 40	    1.00000	    0.00000	 500.0	 1	    1.10000	    0.90000;
	4097	 1	 0.0	 0.0	 0.0	 0.0	 40	    1.00000	    0.00000	 500.0	 1	    1.10000	    0.90000;
	4101	 1	 1305.83	 129.78	 0.0	 0.0	 40	    1.00000	    0.00000	 500.0	 1	    1.10000	    0.90000;
	4102	 1	 630.78	 68.66	 0.0	 0.0	 40	    1.00000	    0.00000	 500.0	 1	    1.10000	    0.90000;
	4103	 1	 15.26	 1.51	 0.0	 0.0	 40	    1.00000	    0.00000	 500.0	 1	    1.10000	    0.90000;
	4104	 1	 3317.33	 329.74	 0.0	 0.0	 40	    1.00000	    0.00000	 230.0	 1	    1.10000	    0.90000;
	4131	 2	 0.0	 0.0	 0.0	 0.0	 40	    1.00000	    0.00000	 20.0	 1	    1.10000	    0.90000;
	4132	 2	 0.0	 0.0	 0.0	 0.0	 40	    1.00000	    0.00000	 20.0	 1	    1.10000	    0.90000;
	4201	 1	 7562.65	 461.01	 0.0	 0.0	 40	    1.00000	    0.00000	 500.0	 1	    1.10000	    0.90000;
	4202	 1	 5982.03	 594.63	 0.0	 0.0	 40	    1.00000	    0.00000	 500.0	 1	    1.10000	    0.90000;
	4203	 1	 5747.62	 571.33	 0.0	 0.0	 40	    1.00000	    0.00000	 500.0	 1	    1.10000	    0.90000;
	4204	 1	 1331.41	 132.34	 0.0	 0.0	 40	    1.00000	    0.00000	 500.0	 1	    1.10000	    0.90000;
	4231	 2	 0.0	 0.0	 0.0	 0.0	 40	    1.00000	    0.00000	 20.0	 1	    1.10000	    0.90000;
	4232	 2	 0.0	 0.0	 0.0	 0.0	 40	    1.00000	    0.00000	 20.0	 1	    1.10000	    0.90000;
	5001	 1	 9939.84	 1721.38	 0.0	 0.0	 50	    1.00000	    0.00000	 500.0	 1	    1.10000	    0.90000;
	5002	 1	 11816.42	 1174.36	 0.0	 0.0	 50	    1.00000	    0.00000	 500.0	 1	    1.10000	    0.90000;
	5003	 1	 807.38	 80.25	 0.0	 0.0	 50	    1.00000	    0.00000	 230.0	 1	    1.10000	    0.90000;
	5004	 1	 0.0	 0.0	 0.0	 0.0	 50	    1.00000	    0.00000	 230.0	 1	    1.10000	    0.90000;
	5031	 2	 0.0	 0.0	 0.0	 0.0	 50	    1.00000	    0.00000	 20.0	 1	    1.10000	    0.90000;
	5032	 2	 0.0	 0.0	 0.0	 0.0	 50	    1.00000	    0.00000	 20.0	 1	    1.10000	    0.90000;
	6101	 1	 0.0	 0.0	 0.0	 0.0	 61	    1.00000	    0.00000	 500.0	 1	    1.10000	    0.90000;
	6102	 1	 1053.14	 -345.28	 0.0	 0.0	 61	    1.00000	    0.00000	 345.0	 1	    1.10000	    0.90000;
	6103	 1	 514.30	 51.11	 0.0	 0.0	 61	    1.00000	    0.00000	 345.0	 1	    1.10000	    0.90000;
	6104	 1	 2224.39	 221.09	 0.0	 0.0	 61	    1.00000	    0.00000	 230.0	 1	    1.10000	    0.90000;
	6132	 2	 0.0	 0.0	 0.0	 0.0	 61	    1.00000	    0.00000	 20.0	 1	    1.10000	    0.90000;
	6201	 1	 270.11	 26.86	 0.0	 0.0	 60	    1.00000	    0.00000	 500.0	 1	    1.10000	    0.90000;
...
];

%% generator data
%	bus	Pg	Qg	Qmax	Qmin	Vg	mBase	status	Pmax	Pmin
mpc.gen = [
	1032	 743.5	 0.0	 1030.0	 -1030.0	 1.0	 100.0	 1	 1487	 0.0; % NUC
	1032	 517.5	 0.0	 518.0	 -518.0	 1.0	 100.0	 1	 1035	 0.0; % COW
	1034	 354.5	 0.0	 2294.0	 -2294.0	 1.0	 100.0	 1	 709	 0.0; % COW
	1034	 271.0	 0.0	 918.0	 -918.0	 1.0	 100.0	 1	 542	 0.0; % COW
	1034	 541.0	 0.0	 700.0	 -700.0	 1.0	 100.0	 1	 1082	 0.0; % NUC
	1131	 886.5	 0.0	 887.0	 -887.0	 1.0	 100.0	 1	 1773	 0.0; % COW
	1131	 886.5	 0.0	 1916.0	 -1916.0	 1.0	 100.0	 1	 1773	 0.0; % COW
	1131	 923.5	 0.0	 924.0	 -924.0	 1.0	 100.0	 1	 1847	 0.0; % NG
	1232	 726.5	 0.0	 1208.0	 -1208.0	 1.0	 100.0	 1	 1453	 0.0; % COW
	1232	 571.5	 0.0	 628.0	 -628.0	 1.0	 100.0	 1	 1143	 0.0; % NUC
	1331	 1208.5	 0.0	 1209.0	 -1209.0	 1.0	 100.0	 1	 2417	 0.0; % NUC
	1331	 1239.0	 0.0	 1239.0	 -1239.0	 1.0	 100.0	 1	 2478	 0.0; % COW
	1333	 1474.5	 0.0	 1475.0	 -1475.0	 1.0	 100.0	 1	 2949	 0.0; % COW
	1333	 1438.0	 0.0	 2746.0	 -2746.0	 1.0	 100.0	 1	 2876	 0.0; % NUC
	1333	 1578.5	 0.0	 1579.0	 -1579.0	 1.0	 100.0	 1	 3157	 0.0; % PEL
	1431	 2419.5	 0.0	 3559.0	 -3559.0	 1.0	 100.0	 1	 4839	 0.0; % COW
	1431	 2419.5	 0.0	 2420.0	 -2420.0	 1.0	 100.0	 1	 4839	 0.0; % COW
	1431	 2589.5	 0.0	 2590.0	 -2590.0	 1.0	 100.0	 1	 5179	 0.0; % PEL
	2030	 1045.5	 0.0	 1070.0	 -1070.0	 1.0	 100.0	 1	 2091	 0.0; % COW
	2030	 774.5	 0.0	 775.0	 -775.0	 1.0	 100.0	 1	 1549	 0.0; % COW
	2130	 297.0	 0.0	 297.0	 -297.0	 1.0	 100.0	 1	 594	 0.0; % NG
	2130	 388.0	 0.0	 388.0	 -388.0	 1.0	 100.0	 1	 776	 0.0; % COW
	2130	 297.0	 0.0	 297.0	 -297.0	 1.0	 100.0	 1	 594	 0.0; % NG
	2130	 275.5	 0.0	 276.0	 -276.0	 1.0	 100.0	 1	 551	 0.0; % NG
	2233	 565.5	 0.0	 566.0	 -566.0	 1.0	 100.0	 1	 1131	 0.0; % COW
	2233	 635.0	 0.0	 635.0	 -635.0	 1.0	 100.0	 1	 1270	 0.0; % NG
	2233	 635.0	 0.0	 635.0	 -635.0	 1.0	 100.0	 1	 1270	 0.0; % NG
	2332	 703.5	 0.0	 704.0	 -704.0	 1.0	 100.0	 1	 1407	 0.0; % NUC
	2438	 467.0	 130.5	 728.0	 -467.0	 1.0	 100.0	 1	 934	 0.0; % NG
	2438	 627.0	 367.0	 1902.0	 -1168.0	 1.0	 100.0	 1	 1254	 0.0; % NUC
	2438	 444.5	 624.0	 2301.0	 -1053.0	 1.0	 100.0	 1	 889	 0.0; % COW
	2438	 651.5	 3.5	 659.0	 -652.0	 1.0	 100.0	 1	 1303	 0.0; % COW
	2438	 485.0	 0.0	 485.0	 -485.0	 1.0	 100.0	 1	 970	 0.0; % COW
	2438	 536.5	 4.0	 561.0	 -553.0	 1.0	 100.0	 1	 1073	 0.0; % COW
	2438	 477.5	 380.0	 1910.0	 -1150.0	 1.0	 100.0	 1	 955	 0.0; % COW
	2438	 -503.0	 0.0	 88.8	 -88.8	 1.0	 100.0	 1	 0	 -1006.0; % SYNC
	2533	 2423.5	 0.0	 2424.0	 -2424.0	 1.0	 100.0	 1	 4847	 0.0; % COW
	2630	 560.0	 0.0	 1346.0	 -1346.0	 1.0	 100.0	 1	 1120	 0.0; % COW
	2631	 895.5	 0.0	 896.0	 -896.0	 1.0	 100.0	 1	 1791	 0.0; % NG
	2634	 1969.5	 0.0	 1970.0	 -1970.0	 1.0	 100.0	 1	 3939	 0.0; % COW
	2637	 2350.0	 0.0	 2350.0	 -2350.0	 1.0	 100.0	 1	 4700	 0.0; % NG
	2638	 -516.5	 0.0	 120.0	 -120.0	 1.0	 100.0	 1	 239	 -1272.0; % COW
	3133	 541.5	 0.0	 542.0	 -542.0	 1.0	 100.0	 1	 1083	 0.0; % NG
	3133	 556.5	 0.0	 557.0	 -557.0	 1.0	 100.0	 1	 1113	 0.0; % PEL
	3135	 380.5	 0.0	 381.0	 -381.0	 1.0	 100.0	 1	 761	 0.0; % COW
	3135	 175.5	 0.0	 176.0	 -176.0	 1.0	 100.0	 1	 351	 0.0; % NG
	3234	 646.0	 0.0	 646.0	 -646.0	 1.0	 100.0	 1	 1292	 0.0; % COW
	3234	 498.0	 5.0	 1244.0	 -1234.0	 1.0	 100.0	 1	 996	 0.0; % NG
	3234	 510.0	 0.0	 510.0	 -510.0	 1.0	 100.0	 1	 1020	 0.0; % COW
	3234	 458.5	 0.0	 459.0	 -459.0	 1.0	 100.0	 1	 917	 0.0; % COW
	3333	 486.5	 0.0	 487.0	 -487.0	 1.0	 100.0	 1	 973	 0.0; % COW
	3333	 463.5	 0.0	 464.0	 -464.0	 1.0	 100.0	 1	 927	 0.0; % NG
	3432	 81.5	 0.0	 544.0	 -544.0	 1.0	 100.0	 1	 1087	 -924.0; % NG
	3433	 514.0	 0.0	 514.0	 -514.0	 1.0	 100.0	 1	 1028	 0.0; % COW
	3433	 569.0	 185.0	 939.0	 -569.0	 1.0	 100.0	 1	 1138	 0.0; % COW
	3531	 425.0	 202.5	 1004.0	 -599.0	 1.0	 100.0	 1	 850	 0.0; % COW
	3531	 299.0	 0.0	 299.0	 -299.0	 1.0	 100.0	 1	 598	 0.0; % COW
	3531	 268.5	 0.0	 269.0	 -269.0	 1.0	 100.0	 1	 537	 0.0; % NG
	3631	 168.0	 0.0	 168.0	 -168.0	 1.0	 100.0	 1	 336	 0.0; % NG
	3631	 106.0	 0.0	 106.0	 -106.0	 1.0	 100.0	 1	 212	 0.0; % NG
	3731	 2080.0	 0.0	 2080.0	 -2080.0	 1.0	 100.0	 1	 4160	 0.0; % NG
	3831	 712.5	 97.5	 1175.0	 -980.0	 1.0	 100.0	 1	 1425	 0.0; % COW
	3835	 970.0	 0.0	 970.0	 -970.0	 1.0	 100.0	 1	 1940	 0.0; % COW
	3835	 -255.0	 0.0	 19.2	 -19.2	 1.0	 100.0	 1	 0	 -510.0; % SYNC
	3836	 491.5	 0.0	 492.0	 -492.0	 1.0	 100.0	 1	 983	 0.0; % COW
	3931	 148.5	 1.0	 151.0	 -149.0	 1.0	 100.0	 1	 297	 0.0; % NG
	3931	 461.5	 169.0	 1284.0	 -946.0	 1.0	 100.0	 1	 923	 0.0; % NUC
	3932	 1127.0	 11.5	 1150.0	 -1127.0	 1.0	 100.0	 1	 2254	 0.0; % COW
	3933	 404.5	 -14.7	 405.0	 -434.4	 1.0	 100.0	 1	 809	 0.0; % COW
	3933	 363.5	 0.0	 434.4	 -434.4	 1.0	 100.0	 1	 727	 0.0; % NG
	3933	 919.0	 0.0	 919.0	 -919.0	 1.0	 100.0	 1	 1838	 0.0; % COW
	3933	 547.5	 107.5	 1256.0	 -1041.0	 1.0	 100.0	 1	 1095	 0.0; % COW
	3933	 323.5	 0.0	 434.4	 -434.4	 1.0	 100.0	 1	 647	 0.0; % NG
	3933	 296.0	 0.0	 521.0	 -521.0	 1.0	 100.0	 1	 1041	 -449.0; % NUC
	4039	 873.5	 0.0	 958.8	 -958.8	 1.0	 100.0	 1	 1747	 0.0; % COW
	4039	 848.0	 0.0	 1459.0	 -1459.0	 1.0	 100.0	 1	 1696	 0.0; % COW
	4039	 642.5	 0.0	 958.8	 -958.8	 1.0	 100.0	 1	 1285	 0.0; % NG
	4031	 1300.0	 0.0	 1300.0	 -1300.0	 1.0	 100.0	 1	 2600	 0.0; % COW
	4031	 1353.5	 0.0	 1354.0	 -1354.0	 1.0	 100.0	 1	 2707	 0.0; % NG
	4031	 1300.0	 0.0	 1300.0	 -1300.0	 1.0	 100.0	 1	 2600	 0.0; % COW
	4031	 1353.5	 0.0	 1354.0	 -1354.0	 1.0	 100.0	 1	 2707	 0.0; % NG
	4035	 366.0	 0.0	 721.2	 -721.2	 1.0	 100.0	 1	 732	 0.0; % COW
	4035	 295.5	 0.0	 721.2	 -721.2	 1.0	 100.0	 1	 591	 0.0; % COW
	4035	 465.5	 0.0	 1836.0	 -1836.0	 1.0	 100.0	 1	 931	 0.0; % COW
	4035	 373.5	 0.0	 721.2	 -721.2	 1.0	 100.0	 1	 747	 0.0; % COW
	4131	 655.0	 0.0	 6482.0	 -6482.0	 1.0	 100.0	 1	 1310	 0.0; % COW
	4131	 682.5	 0.0	 683.0	 -683.0	 1.0	 100.0	 1	 1365	 0.0; % NG
	4132	 174.0	 0.0	 1473.0	 -1473.0	 1.0	 100.0	 1	 348	 0.0; % COW
	4132	 66.5	 0.0	 2847.0	 -2847.0	 1.0	 100.0	 1	 133	 0.0; % COW
	4132	 303.5	 0.0	 580.0	 -580.0	 1.0	 100.0	 1	 607	 0.0; % COW
	4132	 125.0	 0.0	 231.0	 -231.0	 1.0	 100.0	 1	 250	 0.0; % NG
	4132	 173.0	 0.0	 173.0	 -173.0	 1.0	 100.0	 1	 346	 0.0; % NG
	4231	 330.5	 0.0	 728.0	 -728.0	 1.0	 100.0	 1	 661	 0.0; % COW
	4231	 318.0	 0.0	 659.0	 -659.0	 1.0	 100.0	 1	 636	 0.0; % COW
	4231	 536.5	 0.0	 1808.0	 -1808.0	 1.0	 100.0	 1	 1073	 0.0; % NUC
	4231	 358.5	 0.0	 359.0	 -359.0	 1.0	 100.0	 1	 717	 0.0; % NG
	4232	 3030.0	 0.0	 3030.0	 -3030.0	 1.0	 100.0	 1	 6060	 0.0; % COW
	4232	 3155.5	 0.0	 3156.0	 -3156.0	 1.0	 100.0	 1	 6311	 0.0; % NG
	4232	 3155.5	 0.0	 3156.0	 -3156.0	 1.0	 100.0	 1	 6311	 0.0; % NG
	5031	 2897.0	 0.0	 2897.0	 -2897.0	 1.0	 100.0	 1	 5794	 0.0; % NG
	5031	 2781.5	 0.0	 4399.0	 -4399.0	 1.0	 100.0	 1	 5563	 0.0; % COW
	5032	 1488.0	 0.0	 2977.0	 -2977.0	 1.0	 100.0	 1	 2976	 0.0; % COW
	5032	 1488.0	 0.0	 2200.0	 -2200.0	 1.0	 100.0	 1	 2976	 0.0; % COW
	5032	 1488.0	 0.0	 2205.0	 -2205.0	 1.0	 100.0	 1	 2976	 0.0; % COW
	5032	 1549.5	 0.0	 1550.0	 -1550.0	 1.0	 100.0	 1	 3099	 0.0; % NG
	5032	 1549.5	 0.0	 1550.0	 -1550.0	 1.0	 100.0	 1	 3099	 0.0; % NG
	6132	 270.5	 0.0	 271.0	 -271.0	 1.0	 100.0	 1	 541	 0.0; % COW
	6132	 233.0	 0.0	 233.0	 -233.0	 1.0	 100.0	 1	 466	 0.0; % NG
	6132	 255.0	 0.0	 1072.0	 -1072.0	 1.0	 100.0	 1	 510	 0.0; % COW
	6132	 228.0	 0.0	 228.0	 -228.0	 1.0	 100.0	 1	 456	 0.0; % NG
	6132	 253.5	 0.0	 254.0	 -254.0	 1.0	 100.0	 1	 507	 0.0; % NG
	6231	 425.5	 0.0	 1256.0	 -1256.0	 1.0	 100.0	 1	 851	 0.0; % COW
	6231	 206.0	 0.0	 206.0	 -206.0	 1.0	 100.0	 1	 412	 0.0; % COW
	6235	 448.0	 0.0	 448.0	 -448.0	 1.0	 100.0	 1	 896	 0.0; % COW
	6235	 309.5	 0.0	 347.0	 -347.0	 1.0	 100.0	 1	 619	 0.0; % COW
	6235	 291.5	 0.0	 292.0	 -292.0	 1.0	 100.0	 1	 583	 0.0; % COW
	6333	 569.5	 0.0	 1671.0	 -1671.0	 1.0	 100.0	 1	 1139	 0.0; % COW
	6333	 755.0	 0.0	 755.0	 -755.0	 1.0	 100.0	 1	 1510	 0.0; % COW
	6335	 76.0	 0.0	 968.0	 -968.0	 1.0	 100.0	 1	 152	 0.0; % NG
	6335	 181.0	 0.0	 330.0	 -330.0	 1.0	 100.0	 1	 362	 0.0; % COW
	6335	 104.5	 0.0	 406.0	 -406.0	 1.0	 100.0	 1	 209	 0.0; % COW
	6433	 249.0	 0.0	 283.0	 -283.0	 1.0	 100.0	 1	 498	 0.0; % NG
	6433	 154.5	 0.0	 155.0	 -155.0	 1.0	 100.0	 1	 309	 0.0; % NG
	6433	 250.0	 0.0	 536.0	 -536.0	 1.0	 100.0	 1	 500	 0.0; % COW
	6433	 105.0	 0.0	 105.0	 -105.0	 1.0	 100.0	 1	 210	 0.0; % PEL
	6433	 112.5	 0.0	 113.0	 -113.0	 1.0	 100.0	 1	 225	 0.0; % NG
	6533	 492.5	 0.0	 1924.0	 -1924.0	 1.0	 100.0	 1	 985	 0.0; % COW
	6533	 398.0	 0.0	 398.0	 -398.0	 1.0	 100.0	 1	 796	 0.0; % PEL
	6533	 430.0	 0.0	 880.0	 -880.0	 1.0	 100.0	 1	 860	 0.0; % COW
	6533	 387.0	 0.0	 387.0	 -387.0	 1.0	 100.0	 1	 774	 0.0; % NG
	6533	 387.0	 0.0	 387.0	 -387.0	 1.0	 100.0	 1	 774	 0.0; % NG
	7031	 1139.5	 0.0	 1419.0	 -1419.0	 1.0	 100.0	 1	 2279	 0.0; % COW
	7031	 1139.5	 0.0	 2092.0	 -2092.0	 1.0	 100.0	 1	 2279	 0.0; % COW
	7031	 832.0	 0.0	 999.0	 -999.0	 1.0	 100.0	 1	 1997	 -333.0; % NG
	7031	 1186.5	 0.0	 1187.0	 -1187.0	 1.0	 100.0	 1	 2373	 0.0; % NG
	7031	 1219.5	 0.0	 1220.0	 -1220.0	 1.0	 100.0	 1	 2439	 0.0; % PEL
	7032	 680.5	 0.0	 826.0	 -826.0	 1.0	 100.0	 1	 1361	 0.0; % COW
	7032	 461.0	 0.0	 489.0	 -489.0	 1.0	 100.0	 1	 922	 0.0; % NUC
	7032	 452.0	 0.0	 452.0	 -452.0	 1.0	 100.0	 1	 904	 0.0; % COW
	7032	 264.5	 0.0	 365.0	 -365.0	 1.0	 100.0	 1	 729	 -200.0; % NG
	8033	 189.0	 0.0	 786.0	 -786.0	 1.0	 100.0	 1	 378	 0.0; % COW
	8034	 1400.0	 0.0	 1400.0	 -1400.0	 1.0	 100.0	 1	 2800	 0.0; % COW
	8034	 1400.0	 0.0	 1400.0	 -1400.0	 1.0	 100.0	 1	 2800	 0.0; % COW
];

%% generator cost data
%	2	startup	shutdown	n	c(n-1)	...	c0
mpc.gencost = [
	2	 0.0	 0.0	 3	   0.000000	  23.552530	   0.000000; % NUC
	2	 0.0	 0.0	 3	   0.000000	  17.525740	   0.000000; % COW
	2	 0.0	 0.0	 3	   0.000000	  50.253548	   0.000000; % COW
	2	 0.0	 0.0	 3	   0.000000	   7.784540	   0.000000; % COW
	2	 0.0	 0.0	 3	   0.000000	   7.164105	   0.000000; % NUC
	2	 0.0	 0.0	 3	   0.000000	  32.436958	   0.000000; % COW
	2	 0.0	 0.0	 3	   0.000000	  31.156469	   0.000000; % COW
	2	 0.0	 0.0	 3	   0.000000	  22.737499	   0.000000; % NG
	2	 0.0	 0.0	 3	   0.000000	  19.952184	   0.000000; % COW
	2	 0.0	 0.0	 3	   0.000000	  31.242137	   0.000000; % NUC
	2	 0.0	 0.0	 3	   0.000000	  24.807784	   0.000000; % NUC
	2	 0.0	 0.0	 3	   0.000000	  28.383968	   0.000000; % COW
	2	 0.0	 0.0	 3	   0.000000	  34.755431	   0.000000; % COW
	2	 0.0	 0.0	 3	   0.000000	   7.698014	   0.000000; % NUC
	2	 0.0	 0.0	 3	   0.000000	 105.404954	   0.000000; % PEL
	2	 0.0	 0.0	 3	   0.000000	  40.082606	   0.000000; % COW
	2	 0.0	 0.0	 3	   0.000000	  25.630090	   0.000000; % COW
	2	 0.0	 0.0	 3	   0.000000	 103.348768	   0.000000; % PEL
	2	 0.0	 0.0	 3	   0.000000	   6.769987	   0.000000; % COW
	2	 0.0	 0.0	 3	   0.000000	  11.508310	   0.000000; % COW
	2	 0.0	 0.0	 3	   0.000000	  37.856831	   0.000000; % NG
	2	 0.0	 0.0	 3	   0.000000	  36.108116	   0.000000; % COW
	2	 0.0	 0.0	 3	   0.000000	  49.860247	   0.000000; % NG
	2	 0.0	 0.0	 3	   0.000000	  19.863282	   0.000000; % NG
	2	 0.0	 0.0	 3	   0.000000	  28.216009	   0.000000; % COW
	2	 0.0	 0.0	 3	   0.000000	  25.247027	   0.000000; % NG
	2	 0.0	 0.0	 3	   0.000000	  39.435718	   0.000000; % NG
	2	 0.0	 0.0	 3	   0.000000	  22.418634	   0.000000; % NUC
	2	 0.0	 0.0	 3	   0.000000	  25.395707	   0.000000; % NG
	2	 0.0	 0.0	 3	   0.000000	 112.919983	   0.000000; % NUC
	2	 0.0	 0.0	 3	   0.000000	  29.447096	   0.000000; % COW
	2	 0.0	 0.0	 3	   0.000000	  27.360187	   0.000000; % COW
	2	 0.0	 0.0	 3	   0.000000	  43.054554	   0.000000; % COW
	2	 0.0	 0.0	 3	   0.000000	  21.954880	   0.000000; % COW
	2	 0.0	 0.0	 3	   0.000000	  21.935047	   0.000000; % COW
	2	 0.0	 0.0	 3	   0.000000	   0.000000	   0.000000; % SYNC
	2	 0.0	 0.0	 3	   0.000000	  32.738635	   0.000000; % COW
	2	 0.0	 0.0	 3	   0.000000	  24.642891	   0.000000; % COW
	2	 0.0	 0.0	 3	   0.000000	  17.386501	   0.000000; % NG
	2	 0.0	 0.0	 3	   0.000000	  25.623984	   0.000000; % COW
	2	 0.0	 0.0	 3	   0.000000	  36.008261	   0.000000; % NG
	2	 0.0	 0.0	 3	   0.000000	  33.638878	   0.000000; % COW
	2	 0.0	 0.0	 3	   0.000000	  60.295192	   0.000000; % NG
	2	 0.0	 0.0	 3	   0.000000	 115.784252	   0.000000; % PEL
	2	 0.0	 0.0	 3	   0.000000	  19.747758	   0.000000; % COW
	2	 0.0	 0.0	 3	   0.000000	 139.406671	   0.000000; % NG
	2	 0.0	 0.0	 3	   0.000000	  40.626840	   0.000000; % COW
	2	 0.0	 0.0	 3	   0.000000	  33.390411	   0.000000; % NG
	2	 0.0	 0.0	 3	   0.000000	   9.116809	   0.000000; % COW
	2	 0.0	 0.0	 3	   0.000000	  22.599236	   0.000000; % COW
	2	 0.0	 0.0	 3	   0.000000	  36.557379	   0.000000; % COW
	2	 0.0	 0.0	 3	   0.000000	  29.600547	   0.000000; % NG
	2	 0.0	 0.0	 3	   0.000000	  23.127115	   0.000000; % NG
	2	 0.0	 0.0	 3	   0.000000	  19.029025	   0.000000; % COW
	2	 0.0	 0.0	 3	   0.000000	  26.628665	   0.000000; % COW
	2	 0.0	 0.0	 3	   0.000000	  23.069170	   0.000000; % COW
	2	 0.0	 0.0	 3	   0.000000	  19.755158	   0.000000; % COW
	2	 0.0	 0.0	 3	   0.000000	 111.468783	   0.000000; % NG
	2	 0.0	 0.0	 3	   0.000000	  37.364330	   0.000000; % NG
	2	 0.0	 0.0	 3	   0.000000	  29.305594	   0.000000; % NG
	2	 0.0	 0.0	 3	   0.000000	  43.487946	   0.000000; % NG
	2	 0.0	 0.0	 3	   0.000000	  18.009089	   0.000000; % COW
	2	 0.0	 0.0	 3	   0.000000	  27.186796	   0.000000; % COW
	2	 0.0	 0.0	 3	   0.000000	   0.000000	   0.000000; % SYNC
	2	 0.0	 0.0	 3	   0.000000	  39.855613	   0.000000; % COW
	2	 0.0	 0.0	 3	   0.000000	  52.291471	   0.000000; % NG
	2	 0.0	 0.0	 3	   0.000000	  32.821502	   0.000000; % NUC
	2	 0.0	 0.0	 3	   0.000000	  22.434142	   0.000000; % COW
	2	 0.0	 0.0	 3	   0.000000	  35.060251	   0.000000; % COW
	2	 0.0	 0.0	 3	   0.000000	  58.640953	   0.000000; % NG
	2	 0.0	 0.0	 3	   0.000000	  40.111583	   0.000000; % COW
	2	 0.0	 0.0	 3	   0.000000	  10.724076	   0.000000; % COW
	2	 0.0	 0.0	 3	   0.000000	  29.604602	   0.000000; % NG
	2	 0.0	 0.0	 3	   0.000000	   7.148098	   0.000000; % NUC
	2	 0.0	 0.0	 3	   0.000000	  14.120280	   0.000000; % COW
	2	 0.0	 0.0	 3	   0.000000	  32.489744	   0.000000; % COW
	2	 0.0	 0.0	 3	   0.000000	  32.920521	   0.000000; % NG
	2	 0.0	 0.0	 3	   0.000000	  28.879314	   0.000000; % COW
	2	 0.0	 0.0	 3	   0.000000	   7.795262	   0.000000; % NG
	2	 0.0	 0.0	 3	   0.000000	  14.495790	   0.000000; % COW
	2	 0.0	 0.0	 3	   0.000000	  33.529629	   0.000000; % NG
	2	 0.0	 0.0	 3	   0.000000	  14.148633	   0.000000; % COW
	2	 0.0	 0.0	 3	   0.000000	  22.360086	   0.000000; % COW
	2	 0.0	 0.0	 3	   0.000000	  23.153973	   0.000000; % COW
	2	 0.0	 0.0	 3	   0.000000	  32.076694	   0.000000; % COW
	2	 0.0	 0.0	 3	   0.000000	  31.799668	   0.000000; % COW
	2	 0.0	 0.0	 3	   0.000000	  48.375219	   0.000000; % NG
	2	 0.0	 0.0	 3	   0.000000	  20.048511	   0.000000; % COW
	2	 0.0	 0.0	 3	   0.000000	  13.581555	   0.000000; % COW
	2	 0.0	 0.0	 3	   0.000000	  31.584790	   0.000000; % COW
	2	 0.0	 0.0	 3	   0.000000	  45.195796	   0.000000; % NG
	2	 0.0	 0.0	 3	   0.000000	  39.759127	   0.000000; % NG
	2	 0.0	 0.0	 3	   0.000000	  14.530332	   0.000000; % COW
	2	 0.0	 0.0	 3	   0.000000	  15.136833	   0.000000; % COW
	2	 0.0	 0.0	 3	   0.000000	  42.828324	   0.000000; % NUC
	2	 0.0	 0.0	 3	   0.000000	  14.389570	   0.000000; % NG
	2	 0.0	 0.0	 3	   0.000000	  38.966466	   0.000000; % COW
	2	 0.0	 0.0	 3	   0.000000	  15.486578	   0.000000; % NG
	2	 0.0	 0.0	 3	   0.000000	  41.492611	   0.000000; % NG
	2	 0.0	 0.0	 3	   0.000000	  28.466295	   0.000000; % NG
	2	 0.0	 0.0	 3	   0.000000	  27.255650	   0.000000; % COW
	2	 0.0	 0.0	 3	   0.000000	  24.837547	   0.000000; % COW
	2	 0.0	 0.0	 3	   0.000000	  28.019241	   0.000000; % COW
	2	 0.0	 0.0	 3	   0.000000	  11.786936	   0.000000; % COW
	2	 0.0	 0.0	 3	   0.000000	  29.985739	   0.000000; % NG
	2	 0.0	 0.0	 3	   0.000000	  28.815976	   0.000000; % NG
	2	 0.0	 0.0	 3	   0.000000	  37.698432	   0.000000; % COW
	2	 0.0	 0.0	 3	   0.000000	  48.831293	   0.000000; % NG
	2	 0.0	 0.0	 3	   0.000000	  32.211888	   0.000000; % COW
	2	 0.0	 0.0	 3	   0.000000	 105.104656	   0.000000; % NG
	2	 0.0	 0.0	 3	   0.000000	  37.879273	   0.000000; % NG
	2	 0.0	 0.0	 3	   0.000000	  33.634935	   0.000000; % COW
	2	 0.0	 0.0	 3	   0.000000	  30.107834	   0.000000; % COW
	2	 0.0	 0.0	 3	   0.000000	  37.793235	   0.000000; % COW
	2	 0.0	 0.0	 3	   0.000000	  31.239418	   0.000000; % COW
	2	 0.0	 0.0	 3	   0.000000	  28.663274	   0.000000; % COW
	2	 0.0	 0.0	 3	   0.000000	  24.405861	   0.000000; % COW
	2	 0.0	 0.0	 3	   0.000000	  38.016670	   0.000000; % COW
	2	 0.0	 0.0	 3	   0.000000	  32.247846	   0.000000; % NG
	2	 0.0	 0.0	 3	   0.000000	  24.388960	   0.000000; % COW
	2	 0.0	 0.0	 3	   0.000000	  11.816160	   0.000000; % COW
	2	 0.0	 0.0	 3	   0.000000	  29.852868	   0.000000; % NG
	2	 0.0	 0.0	 3	   0.000000	  28.252173	   0.000000; % NG
	2	 0.0	 0.0	 3	   0.000000	 102.698216	   0.000000; % COW
	2	 0.0	 0.0	 3	   0.000000	  23.707527	   0.000000; % PEL
	2	 0.0	 0.0	 3	   0.000000	  26.935133	   0.000000; % NG
	2	 0.0	 0.0	 3	   0.000000	  19.266401	   0.000000; % COW
	2	 0.0	 0.0	 3	   0.000000	  27.889540	   0.000000; % PEL
	2	 0.0	 0.0	 3	   0.000000	  20.456741	   0.000000; % COW
	2	 0.0	 0.0	 3	   0.000000	  26.092954	   0.000000; % NG
	2	 0.0	 0.0	 3	   0.000000	  37.210311	   0.000000; % NG
	2	 0.0	 0.0	 3	   0.000000	  27.338561	   0.000000; % COW
	2	 0.0	 0.0	 3	   0.000000	   7.157129	   0.000000; % COW
	2	 0.0	 0.0	 3	   0.000000	  38.956112	   0.000000; % NG
	2	 0.0	 0.0	 3	   0.000000	  40.642352	   0.000000; % NG
	2	 0.0	 0.0	 3	   0.000000	  18.781578	   0.000000; % PEL
	2	 0.0	 0.0	 3	   0.000000	  43.330859	   0.000000; % COW
	2	 0.0	 0.0	 3	   0.000000	  31.905335	   0.000000; % NUC
	2	 0.0	 0.0	 3	   0.000000	   9.594434	   0.000000; % COW
	2	 0.0	 0.0	 3	   0.000000	  25.215165	   0.000000; % NG
	2	 0.0	 0.0	 3	   0.000000	 114.365663	   0.000000; % COW
	2	 0.0	 0.0	 3	   0.000000	  24.149150	   0.000000; % COW
	2	 0.0	 0.0	 3	   0.000000	  24.948779	   0.000000; % COW
];

%% branch data
%	fbus	tbus	r	x	b	rateA	rateB	rateC	ratio	angle	status	angmin	angmax
mpc.branch = [
	1001	 1201	 0.00177	 0.03169	 3.3446	 996.0	 996.0	 996.0	 0.0	 0.0	 1	 -30.0	 30.0;
	1001	 1202	 0.0108	 0.0965	 0.3296	 326.0	 326.0	 326.0	 0.0	 0.0	 1	 -30.0	 30.0;
	1002	 1004	 0.0005	 0.0053	 0.0882	 5934.0	 5934.0	 5934.0	 0.0	 0.0	 1	 -30.0	 30.0;
	1002	 1102	 0.00179	 0.01988	 2.576	 1583.0	 1583.0	 1583.0	 0.0	 0.0	 1	 -30.0	 30.0;
	1002	 1102	 0.00179	 0.01988	 2.576	 1583.0	 1583.0	 1583.0	 0.0	 0.0	 1	 -30.0	 30.0;
	1002	 6506	 0.0048	 0.0436	 0.7078	 721.0	 721.0	 721.0	 0.0	 0.0	 1	 -30.0	 30.0;
	1004	 7001	 0.03903	 0.27403	 2.0	 115.0	 115.0	 115.0	 0.0	 0.0	 1	 -30.0	 30.0;
	1004	 7002	 0.00977	 0.11	 2.0	 287.0	 287.0	 287.0	 0.0	 0.0	 1	 -30.0	 30.0;
	1101	 1401	 0.0028	 0.0211	 1.0194	 1485.0	 1485.0	 1485.0	 0.0	 0.0	 1	 -30.0	 30.0;
	1101	 1401	 0.0028	 0.0211	 1.0194	 1485.0	 1485.0	 1485.0	 0.0	 0.0	 1	 -30.0	 30.0;
	1201	 1202	 0.00077	 0.00536	 1.39842	 5834.0	 5834.0	 5834.0	 0.0	 0.0	 1	 -30.0	 30.0;
	1201	 1402	 0.00179	 0.02592	 3.3922	 1216.0	 1216.0	 1216.0	 0.0	 0.0	 1	 -30.0	 30.0;
	1201	 2901	 0.00207	 0.01369	 3.9516	 2282.0	 2282.0	 2282.0	 0.0	 0.0	 1	 -30.0	 30.0;
	1202	 1302	 0.0028	 0.0211	 1.0194	 1485.0	 1485.0	 1485.0	 0.0	 0.0	 1	 -30.0	 30.0;
	1202	 1402	 0.00241	 0.03489	 4.8656	 904.0	 904.0	 904.0	 0.0	 0.0	 1	 -30.0	 30.0;
	1301	 1302	 0.0028	 0.0211	 1.0194	 1485.0	 1485.0	 1485.0	 0.0	 0.0	 1	 -30.0	 30.0;
	1301	 1402	 0.0028	 0.0211	 1.0194	 1485.0	 1485.0	 1485.0	 0.0	 0.0	 1	 -30.0	 30.0;
	1301	 1402	 0.0062	 0.0673	 1.1156	 468.0	 468.0	 468.0	 0.0	 0.0	 1	 -30.0	 30.0;
	1301	 2603	 0.00179	 0.02524	 0.53546	 1249.0	 1249.0	 1249.0	 0.0	 0.0	 1	 -30.0	 30.0;
	1301	 2901	 0.0108	 0.0965	 0.3296	 326.0	 326.0	 326.0	 0.0	 0.0	 1	 -30.0	 30.0;
	1303	 6507	 0.00811	 0.1369	 1.1156	 231.0	 231.0	 231.0	 0.0	 0.0	 1	 -30.0	 30.0;
	1401	 1402	 0.0004	 0.0096	 0.9038	 3288.0	 3288.0	 3288.0	 0.0	 0.0	 1	 -30.0	 30.0;
	1401	 1402	 0.0004	 0.0096	 0.9038	 3288.0	 3288.0	 3288.0	 0.0	 0.0	 1	 -30.0	 30.0;
	1401	 2301	 0.00259	 0.02967	 2.153	 1061.0	 1061.0	 1061.0	 0.0	 0.0	 1	 -30.0	 30.0;
	1401	 2400	 0.00259	 0.02967	 2.153	 1061.0	 1061.0	 1061.0	 0.0	 0.0	 1	 -30.0	 30.0;
	1403	 2100	 0.00845	 0.07034	 0.15954	 446.0	 446.0	 446.0	 0.0	 0.0	 1	 -30.0	 30.0;
	2000	 2202	 0.00138	 0.05399	 0.15252	 585.0	 585.0	 585.0	 0.0	 0.0	 1	 -30.0	 30.0;
	2000	 2302	 0.00138	 0.05399	 0.15252	 585.0	 585.0	 585.0	 0.0	 0.0	 1	 -30.0	 30.0;
	2100	 2302	 0.00845	 0.07034	 0.15954	 446.0	 446.0	 446.0	 0.0	 0.0	 1	 -30.0	 30.0;
	2201	 2301	 0.00179	 0.02524	 2.153	 1249.0	 1249.0	 1249.0	 0.0	 0.0	 1	 -30.0	 30.0;
	2202	 2203	 0.00312	 0.02886	 0.15252	 1089.0	 1089.0	 1089.0	 0.0	 0.0	 1	 -30.0	 30.0;
	2202	 2203	 0.00312	 0.02886	 0.15252	 1089.0	 1089.0	 1089.0	 0.0	 0.0	 1	 -30.0	 30.0;
	2202	 2503	 0.00312	 0.02886	 0.15252	 1089.0	 1089.0	 1089.0	 0.0	 0.0	 1	 -30.0	 30.0;
	2203	 2503	 0.00312	 0.02886	 0.15252	 1089.0	 1089.0	 1089.0	 0.0	 0.0	 1	 -30.0	 30.0;
	2203	 2503	 0.00312	 0.02886	 0.15252	 1089.0	 1089.0	 1089.0	 0.0	 0.0	 1	 -30.0	 30.0;
	2400	 2403	 0.00042	 0.00905	 0.66794	 3487.0	 3487.0	 3487.0	 0.0	 0.0	 1	 -30.0	 30.0;
	2401	 2402	 0.00028	 0.00753	 0.51736	 4192.0	 4192.0	 4192.0	 0.0	 0.0	 1	 -30.0	 30.0;
	2401	 2402	 0.00035	 0.0075	 0.5536	 4208.0	 4208.0	 4208.0	 0.0	 0.0	 1	 -30.0	 30.0;
	2401	 2404	 0.00044	 0.01125	 0.8292	 2806.0	 2806.0	 2806.0	 0.0	 0.0	 1	 -30.0	 30.0;
	2401	 2404	 0.00044	 0.01125	 0.8292	 2806.0	 2806.0	 2806.0	 0.0	 0.0	 1	 -30.0	 30.0;
	2401	 2501	 0.0006	 0.0128	 0.9462	 2466.0	 2466.0	 2466.0	 0.0	 0.0	 1	 -30.0	 30.0;
	2401	 2603	 0.0002	 0.0041	 0.2962	 7696.0	 7696.0	 7696.0	 0.0	 0.0	 1	 -30.0	 30.0;
	2401	 2901	 0.00193	 0.02779	 4.6712	 1134.0	 1134.0	 1134.0	 0.0	 0.0	 1	 -30.0	 30.0;
	2401	 2902	 0.0019	 0.031	 4.1402	 1018.0	 1018.0	 1018.0	 0.0	 0.0	 1	 -30.0	 30.0;
	2402	 2501	 0.00021	 0.00457	 0.32336	 6905.0	 6905.0	 6905.0	 0.0	 0.0	 1	 -30.0	 30.0;
	2403	 2501	 0.0004	 0.0093	 0.6856	 3394.0	 3394.0	 3394.0	 0.0	 0.0	 1	 -30.0	 30.0;
	2404	 3893	 0.0	 -0.00935	 0.0	 3379.0	 3379.0	 3379.0	 0.0	 0.0	 1	 -30.0	 30.0;
	2404	 3895	 0.0	 -0.00935	 0.0	 3379.0	 3379.0	 3379.0	 0.0	 0.0	 1	 -30.0	 30.0;
	2404	 3897	 0.0	 -0.0084	 0.0	 3761.0	 3761.0	 3761.0	 0.0	 0.0	 1	 -30.0	 30.0;
	2405	 2406	 0.0014	 0.0264	 0.102	 1195.0	 1195.0	 1195.0	 0.0	 0.0	 1	 -30.0	 30.0;
	2405	 2410	 0.00065	 0.01187	 0.04672	 2658.0	 2658.0	 2658.0	 0.0	 0.0	 1	 -30.0	 30.0;
	2405	 2410	 0.00065	 0.01187	 0.04672	 2658.0	 2658.0	 2658.0	 0.0	 0.0	 1	 -30.0	 30.0;
	2406	 2408	 0.0019	 0.0258	 0.0984	 1222.0	 1222.0	 1222.0	 0.0	 0.0	 1	 -30.0	 30.0;
	2406	 2410	 0.00845	 0.07034	 0.15954	 446.0	 446.0	 446.0	 0.0	 0.0	 1	 -30.0	 30.0;
	2407	 2408	 0.0011	 0.0127	 0.048	 2478.0	 2478.0	 2478.0	 0.0	 0.0	 1	 -30.0	 30.0;
	2408	 2409	 0.00138	 0.05399	 0.15252	 585.0	 585.0	 585.0	 0.0	 0.0	 1	 -30.0	 30.0;
	2408	 2409	 0.00138	 0.05399	 0.15252	 585.0	 585.0	 585.0	 0.0	 0.0	 1	 -30.0	 30.0;
	2408	 2411	 0.0032	 0.0395	 0.144	 798.0	 798.0	 798.0	 0.0	 0.0	 1	 -30.0	 30.0;
	2408	 2502	 0.00312	 0.02886	 0.15252	 1089.0	 1089.0	 1089.0	 0.0	 0.0	 1	 -30.0	 30.0;
	2409	 2502	 0.00312	 0.02886	 0.15252	 1089.0	 1089.0	 1089.0	 0.0	 0.0	 1	 -30.0	 30.0;
	2409	 2503	 0.00312	 0.02886	 0.15252	 1089.0	 1089.0	 1089.0	 0.0	 0.0	 1	 -30.0	 30.0;
	2410	 2411	 0.00285	 0.03649	 0.12656	 864.0	 864.0	 864.0	 0.0	 0.0	 1	 -30.0	 30.0;
	2410	 2411	 0.00138	 0.03399	 0.11252	 929.0	 929.0	 929.0	 0.0	 0.0	 1	 -30.0	 30.0;
	2502	 2503	 0.00312	 0.02886	 0.15252	 1089.0	 1089.0	 1089.0	 0.0	 0.0	 1	 -30.0	 30.0;
	2502	 2503	 0.00312	 0.02886	 0.15252	 1089.0	 1089.0	 1089.0	 0.0	 0.0	 1	 -30.0	 30.0;
	2901	 2902	 0.00056	 0.01415	 1.0429	 2231.0	 2231.0	 2231.0	 0.0	 0.0	 1	 -30.0	 30.0;
	2600	 2602	 0.00082	 0.01668	 1.18802	 1892.0	 1892.0	 1892.0	 0.0	 0.0	 1	 -30.0	 30.0;
	2600	 2603	 0.0	 0.00159	 0.12002	 19867.0	 19867.0	 19867.0	 0.0	 0.0	 1	 -30.0	 30.0;
	2600	 2603	 0.0	 0.00159	 0.12002	 19867.0	 19867.0	 19867.0	 0.0	 0.0	 1	 -30.0	 30.0;
	2600	 2601	 0.00074	 0.01861	 1.40264	 1696.0	 1696.0	 1696.0	 0.0	 0.0	 1	 -30.0	 30.0;
	2601	 2603	 0.00083	 0.01884	 1.66668	 1675.0	 1675.0	 1675.0	 0.0	 0.0	 1	 -30.0	 30.0;
	2603	 2901	 0.00179	 0.02524	 0.53546	 1249.0	 1249.0	 1249.0	 0.0	 0.0	 1	 -30.0	 30.0;
	2604	 6404	 0.0108	 0.0965	 0.3296	 326.0	 326.0	 326.0	 0.0	 0.0	 1	 -30.0	 30.0;
	2604	 6504	 0.0018	 0.0245	 0.4392	 1286.0	 1286.0	 1286.0	 0.0	 0.0	 1	 -30.0	 30.0;
	2604	 6504	 0.0018	 0.0245	 0.4392	 1286.0	 1286.0	 1286.0	 0.0	 0.0	 1	 -30.0	 30.0;
	2605	 2607	 0.0107	 0.07905	 0.3667	 396.0	 396.0	 396.0	 0.0	 0.0	 1	 -30.0	 30.0;
	2606	 2607	 0.0107	 0.07905	 0.3667	 396.0	 396.0	 396.0	 0.0	 0.0	 1	 -30.0	 30.0;
	2608	 2611	 0.00221	 0.03346	 0.07338	 942.0	 942.0	 942.0	 0.0	 0.0	 1	 -30.0	 30.0;
	2608	 2612	 0.0029	 0.038	 0.0824	 829.0	 829.0	 829.0	 0.0	 0.0	 1	 -30.0	 30.0;
	2608	 2618	 0.00309	 0.04677	 0.1008	 674.0	 674.0	 674.0	 0.0	 0.0	 1	 -30.0	 30.0;
	2608	 2619	 0.00226	 0.03422	 0.07506	 922.0	 922.0	 922.0	 0.0	 0.0	 1	 -30.0	 30.0;
	2609	 2615	 0.00047	 0.00723	 0.01624	 4360.0	 4360.0	 4360.0	 0.0	 0.0	 1	 -30.0	 30.0;
	2609	 2617	 0.00035	 0.00536	 0.01204	 5881.0	 5881.0	 5881.0	 0.0	 0.0	 1	 -30.0	 30.0;
	2610	 2613	 0.0022	 0.03422	 0.07716	 922.0	 922.0	 922.0	 0.0	 0.0	 1	 -30.0	 30.0;
	2610	 2613	 0.00238	 0.03669	 0.08284	 860.0	 860.0	 860.0	 0.0	 0.0	 1	 -30.0	 30.0;
	2610	 2616	 0.00201	 0.03074	 0.06886	 1026.0	 1026.0	 1026.0	 0.0	 0.0	 1	 -30.0	 30.0;
	2610	 2617	 0.00281	 0.04296	 0.09648	 734.0	 734.0	 734.0	 0.0	 0.0	 1	 -30.0	 30.0;
	2611	 2612	 0.00029	 0.00434	 0.0095	 7262.0	 7262.0	 7262.0	 0.0	 0.0	 1	 -30.0	 30.0;
	2612	 2615	 0.00229	 0.01583	 0.0306	 1975.0	 1975.0	 1975.0	 0.0	 0.0	 1	 -30.0	 30.0;
	2612	 2615	 0.00229	 0.01583	 0.0306	 1975.0	 1975.0	 1975.0	 0.0	 0.0	 1	 -30.0	 30.0;
	2612	 2618	 0.00141	 0.00967	 0.0194	 3233.0	 3233.0	 3233.0	 0.0	 0.0	 1	 -30.0	 30.0;
	2612	 2618	 0.00141	 0.00967	 0.0194	 3233.0	 3233.0	 3233.0	 0.0	 0.0	 1	 -30.0	 30.0;
	2612	 2618	 0.00161	 0.00971	 0.01928	 3210.0	 3210.0	 3210.0	 0.0	 0.0	 1	 -30.0	 30.0;
	2612	 2618	 0.00161	 0.00971	 0.01928	 3210.0	 3210.0	 3210.0	 0.0	 0.0	 1	 -30.0	 30.0;
	2612	 2619	 0.00027	 0.00393	 0.00918	 8019.0	 8019.0	 8019.0	 0.0	 0.0	 1	 -30.0	 30.0;
	2612	 2619	 0.00027	 0.00393	 0.00918	 8019.0	 8019.0	 8019.0	 0.0	 0.0	 1	 -30.0	 30.0;
	2612	 2619	 0.00027	 0.00393	 0.00918	 8019.0	 8019.0	 8019.0	 0.0	 0.0	 1	 -30.0	 30.0;
	2612	 2620	 0.00138	 0.01116	 0.0247	 2810.0	 2810.0	 2810.0	 0.0	 0.0	 1	 -30.0	 30.0;
	2612	 2620	 0.00138	 0.01116	 0.0247	 2810.0	 2810.0	 2810.0	 0.0	 0.0	 1	 -30.0	 30.0;
	2613	 2616	 0.00037	 0.00366	 0.0083	 8587.0	 8587.0	 8587.0	 0.0	 0.0	 1	 -30.0	 30.0;
	2613	 2617	 0.00055	 0.00586	 0.01246	 5367.0	 5367.0	 5367.0	 0.0	 0.0	 1	 -30.0	 30.0;
	2614	 2616	 0.00073	 0.01025	 0.02558	 3074.0	 3074.0	 3074.0	 0.0	 0.0	 1	 -30.0	 30.0;
	2614	 2616	 0.00073	 0.01025	 0.02558	 3074.0	 3074.0	 3074.0	 0.0	 0.0	 1	 -30.0	 30.0;
	2615	 2617	 0.00119	 0.01244	 0.02798	 2528.0	 2528.0	 2528.0	 0.0	 0.0	 1	 -30.0	 30.0;
	2615	 2617	 0.00119	 0.01244	 0.02798	 2528.0	 2528.0	 2528.0	 0.0	 0.0	 1	 -30.0	 30.0;
	2615	 2620	 0.00128	 0.00979	 0.0212	 3200.0	 3200.0	 3200.0	 0.0	 0.0	 1	 -30.0	 30.0;
	2616	 2617	 0.0011	 0.01189	 0.02514	 2646.0	 2646.0	 2646.0	 0.0	 0.0	 1	 -30.0	 30.0;
	3101	 3102	 0.0011	 0.0127	 0.048	 2478.0	 2478.0	 2478.0	 0.0	 0.0	 1	 -30.0	 30.0;
	3101	 3102	 0.0011	 0.0127	 0.048	 2478.0	 2478.0	 2478.0	 0.0	 0.0	 1	 -30.0	 30.0;
	3102	 3103	 0.0011	 0.0127	 0.048	 2478.0	 2478.0	 2478.0	 0.0	 0.0	 1	 -30.0	 30.0;
	3102	 3103	 0.0011	 0.0127	 0.048	 2478.0	 2478.0	 2478.0	 0.0	 0.0	 1	 -30.0	 30.0;
	3102	 3103	 0.0011	 0.0127	 0.048	 2478.0	 2478.0	 2478.0	 0.0	 0.0	 1	 -30.0	 30.0;
	3102	 3302	 0.0011	 0.0127	 0.048	 2478.0	 2478.0	 2478.0	 0.0	 0.0	 1	 -30.0	 30.0;
	3103	 3204	 0.0011	 0.0127	 0.048	 2478.0	 2478.0	 2478.0	 0.0	 0.0	 1	 -30.0	 30.0;
	3103	 3204	 0.0011	 0.0127	 0.048	 2478.0	 2478.0	 2478.0	 0.0	 0.0	 1	 -30.0	 30.0;
	3103	 3305	 0.0011	 0.0127	 0.048	 2478.0	 2478.0	 2478.0	 0.0	 0.0	 1	 -30.0	 30.0;
	3103	 3305	 0.0011	 0.0127	 0.048	 2478.0	 2478.0	 2478.0	 0.0	 0.0	 1	 -30.0	 30.0;
	3104	 3105	 0.00312	 0.02886	 0.15252	 1089.0	 1089.0	 1089.0	 0.0	 0.0	 1	 -30.0	 30.0;
	3201	 3202	 0.0011	 0.0127	 0.048	 2478.0	 2478.0	 2478.0	 0.0	 0.0	 1	 -30.0	 30.0;
	3201	 3202	 0.0011	 0.0127	 0.048	 2478.0	 2478.0	 2478.0	 0.0	 0.0	 1	 -30.0	 30.0;
	3201	 3203	 0.0011	 0.0127	 0.048	 2478.0	 2478.0	 2478.0	 0.0	 0.0	 1	 -30.0	 30.0;
	3201	 3203	 0.0011	 0.0127	 0.048	 2478.0	 2478.0	 2478.0	 0.0	 0.0	 1	 -30.0	 30.0;
	3201	 3923	 0.00312	 0.02886	 0.15252	 1089.0	 1089.0	 1089.0	 0.0	 0.0	 1	 -30.0	 30.0;
	3201	 3923	 0.00312	 0.02886	 0.15252	 1089.0	 1089.0	 1089.0	 0.0	 0.0	 1	 -30.0	 30.0;
	3201	 3924	 0.0011	 0.0127	 0.048	 2478.0	 2478.0	 2478.0	 0.0	 0.0	 1	 -30.0	 30.0;
	3201	 3924	 0.0011	 0.0127	 0.048	 2478.0	 2478.0	 2478.0	 0.0	 0.0	 1	 -30.0	 30.0;
	3202	 3203	 0.0011	 0.0127	 0.048	 2478.0	 2478.0	 2478.0	 0.0	 0.0	 1	 -30.0	 30.0;
	3202	 3203	 0.00312	 0.02886	 0.15252	 1089.0	 1089.0	 1089.0	 0.0	 0.0	 1	 -30.0	 30.0;
	3202	 3204	 0.0011	 0.0127	 0.048	 2478.0	 2478.0	 2478.0	 0.0	 0.0	 1	 -30.0	 30.0;
	3202	 3205	 0.0011	 0.0127	 0.048	 2478.0	 2478.0	 2478.0	 0.0	 0.0	 1	 -30.0	 30.0;
	3202	 3924	 0.00312	 0.02886	 0.15252	 1089.0	 1089.0	 1089.0	 0.0	 0.0	 1	 -30.0	 30.0;
	3202	 3924	 0.00312	 0.02886	 0.15252	 1089.0	 1089.0	 1089.0	 0.0	 0.0	 1	 -30.0	 30.0;
	3203	 3204	 0.0011	 0.0127	 0.048	 2478.0	 2478.0	 2478.0	 0.0	 0.0	 1	 -30.0	 30.0;
	3203	 3303	 0.0011	 0.0127	 0.048	 2478.0	 2478.0	 2478.0	 0.0	 0.0	 1	 -30.0	 30.0;
	3203	 3303	 0.00312	 0.02886	 0.15252	 1089.0	 1089.0	 1089.0	 0.0	 0.0	 1	 -30.0	 30.0;
	3203	 3305	 0.0011	 0.0127	 0.048	 2478.0	 2478.0	 2478.0	 0.0	 0.0	 1	 -30.0	 30.0;
	3203	 3923	 0.00312	 0.02886	 0.15252	 1089.0	 1089.0	 1089.0	 0.0	 0.0	 1	 -30.0	 30.0;
	3203	 3923	 0.00312	 0.02886	 0.15252	 1089.0	 1089.0	 1089.0	 0.0	 0.0	 1	 -30.0	 30.0;
	3204	 3205	 0.0011	 0.0127	 0.048	 2478.0	 2478.0	 2478.0	 0.0	 0.0	 1	 -30.0	 30.0;
	3204	 3205	 0.0011	 0.0127	 0.048	 2478.0	 2478.0	 2478.0	 0.0	 0.0	 1	 -30.0	 30.0;
	3204	 3923	 0.00312	 0.02886	 0.15252	 1089.0	 1089.0	 1089.0	 0.0	 0.0	 1	 -30.0	 30.0;
	3204	 3923	 0.00312	 0.02886	 0.15252	 1089.0	 1089.0	 1089.0	 0.0	 0.0	 1	 -30.0	 30.0;
	3205	 3914	 0.00312	 0.02886	 0.15252	 1089.0	 1089.0	 1089.0	 0.0	 0.0	 1	 -30.0	 30.0;
	3205	 3915	 0.00312	 0.02886	 0.15252	 1089.0	 1089.0	 1089.0	 0.0	 0.0	 1	 -30.0	 30.0;
	3301	 3902	 0.00053	 0.01297	 0.0	 2434.0	 2434.0	 2434.0	 0.0	 0.0	 1	 -30.0	 30.0;
	3301	 3903	 1e-05	 -0.00755	 0.0	 4184.0	 4184.0	 4184.0	 0.0	 0.0	 1	 -30.0	 30.0;
	3302	 3304	 0.0011	 0.0127	 0.048	 2478.0	 2478.0	 2478.0	 0.0	 0.0	 1	 -30.0	 30.0;
	3302	 3304	 0.0011	 0.0127	 0.048	 2478.0	 2478.0	 2478.0	 0.0	 0.0	 1	 -30.0	 30.0;
	3303	 3304	 0.0011	 0.0127	 0.048	 2478.0	 2478.0	 2478.0	 0.0	 0.0	 1	 -30.0	 30.0;
	3303	 3304	 0.0011	 0.0127	 0.048	 2478.0	 2478.0	 2478.0	 0.0	 0.0	 1	 -30.0	 30.0;
	3303	 3304	 0.0011	 0.0127	 0.048	 2478.0	 2478.0	 2478.0	 0.0	 0.0	 1	 -30.0	 30.0;
	3303	 3918	 0.00312	 0.02886	 0.15252	 1089.0	 1089.0	 1089.0	 0.0	 0.0	 1	 -30.0	 30.0;
	3303	 3918	 0.00312	 0.02886	 0.15252	 1089.0	 1089.0	 1089.0	 0.0	 0.0	 1	 -30.0	 30.0;
	3305	 3923	 0.00312	 0.02886	 0.15252	 1089.0	 1089.0	 1089.0	 0.0	 0.0	 1	 -30.0	 30.0;
	3401	 3402	 0.00312	 0.02886	 0.15252	 1089.0	 1089.0	 1089.0	 0.0	 0.0	 1	 -30.0	 30.0;
	3401	 3402	 0.00312	 0.02886	 0.15252	 1089.0	 1089.0	 1089.0	 0.0	 0.0	 1	 -30.0	 30.0;
	3401	 3404	 0.00312	 0.02886	 0.15252	 1089.0	 1089.0	 1089.0	 0.0	 0.0	 1	 -30.0	 30.0;
	3401	 3405	 0.00312	 0.02886	 0.15252	 1089.0	 1089.0	 1089.0	 0.0	 0.0	 1	 -30.0	 30.0;
	3401	 3405	 0.00312	 0.02886	 0.15252	 1089.0	 1089.0	 1089.0	 0.0	 0.0	 1	 -30.0	 30.0;
	3401	 3804	 0.00312	 0.02886	 0.15252	 1089.0	 1089.0	 1089.0	 0.0	 0.0	 1	 -30.0	 30.0;
	3403	 3404	 0.00312	 0.02886	 0.15252	 1089.0	 1089.0	 1089.0	 0.0	 0.0	 1	 -30.0	 30.0;
	3403	 3804	 0.00312	 0.02886	 0.15252	 1089.0	 1089.0	 1089.0	 0.0	 0.0	 1	 -30.0	 30.0;
	3404	 3804	 0.00312	 0.02886	 0.15252	 1089.0	 1089.0	 1089.0	 0.0	 0.0	 1	 -30.0	 30.0;
	3404	 3804	 0.00312	 0.02886	 0.15252	 1089.0	 1089.0	 1089.0	 0.0	 0.0	 1	 -30.0	 30.0;
	3404	 3917	 0.00312	 0.02886	 0.15252	 1089.0	 1089.0	 1089.0	 0.0	 0.0	 1	 -30.0	 30.0;
	3404	 3918	 0.00312	 0.02886	 0.15252	 1089.0	 1089.0	 1089.0	 0.0	 0.0	 1	 -30.0	 30.0;
	3405	 3907	 0.00312	 0.02886	 0.15252	 1089.0	 1089.0	 1089.0	 0.0	 0.0	 1	 -30.0	 30.0;
	3405	 3907	 0.00312	 0.02886	 0.15252	 1089.0	 1089.0	 1089.0	 0.0	 0.0	 1	 -30.0	 30.0;
	3501	 3914	 0.00312	 0.02886	 0.15252	 1089.0	 1089.0	 1089.0	 0.0	 0.0	 1	 -30.0	 30.0;
	3501	 3915	 0.00312	 0.02886	 0.15252	 1089.0	 1089.0	 1089.0	 0.0	 0.0	 1	 -30.0	 30.0;
	3601	 3925	 0.00312	 0.02886	 0.15252	 1089.0	 1089.0	 1089.0	 0.0	 0.0	 1	 -30.0	 30.0;
	3701	 3926	 0.00312	 0.02886	 0.15252	 1089.0	 1089.0	 1089.0	 0.0	 0.0	 1	 -30.0	 30.0;
	3701	 3926	 0.00312	 0.02886	 0.15252	 1089.0	 1089.0	 1089.0	 0.0	 0.0	 1	 -30.0	 30.0;
	3801	 3802	 0.00079	 0.01937	 1.3285	 1630.0	 1630.0	 1630.0	 0.0	 0.0	 1	 -30.0	 30.0;
	3801	 3803	 0.00087	 0.02087	 1.4571	 1513.0	 1513.0	 1513.0	 0.0	 0.0	 1	 -30.0	 30.0;
	3801	 3803	 0.00087	 0.02087	 1.4571	 1513.0	 1513.0	 1513.0	 0.0	 0.0	 1	 -30.0	 30.0;
	3802	 3891	 0.00072	 0.016	 1.0879	 1973.0	 1973.0	 1973.0	 0.0	 0.0	 1	 -30.0	 30.0;
	3802	 3901	 0.00083	 0.01985	 0.0	 1590.0	 1590.0	 1590.0	 0.0	 0.0	 1	 -30.0	 30.0;
	3803	 3891	 2e-05	 -0.00998	 0.0	 3166.0	 3166.0	 3166.0	 0.0	 0.0	 1	 -30.0	 30.0;
	3803	 3892	 0.0	 -0.00935	 0.0	 3379.0	 3379.0	 3379.0	 0.0	 0.0	 1	 -30.0	 30.0;
	3803	 3894	 0.0	 -0.00944	 0.0	 3347.0	 3347.0	 3347.0	 0.0	 0.0	 1	 -30.0	 30.0;
	3803	 3896	 0.0	 -0.00935	 0.0	 3379.0	 3379.0	 3379.0	 0.0	 0.0	 1	 -30.0	 30.0;
	3803	 3901	 0.00153	 0.0147	 0.0	 2138.0	 2138.0	 2138.0	 0.0	 0.0	 1	 -30.0	 30.0;
	3804	 3806	 0.00312	 0.02886	 0.15252	 1089.0	 1089.0	 1089.0	 0.0	 0.0	 1	 -30.0	 30.0;
	3805	 3806	 0.00312	 0.02886	 0.15252	 1089.0	 1089.0	 1089.0	 0.0	 0.0	 1	 -30.0	 30.0;
	3892	 3893	 0.00123	 0.02659	 1.98702	 1187.0	 1187.0	 1187.0	 0.0	 0.0	 1	 -30.0	 30.0;
	3894	 3895	 0.00123	 0.02662	 1.9888	 1186.0	 1186.0	 1186.0	 0.0	 0.0	 1	 -30.0	 30.0;
	3896	 3897	 0.00112	 0.02517	 1.83586	 1254.0	 1254.0	 1254.0	 0.0	 0.0	 1	 -30.0	 30.0;
	3901	 3902	 0.00053	 0.01297	 0.0	 2434.0	 2434.0	 2434.0	 0.0	 0.0	 1	 -30.0	 30.0;
	3901	 3903	 0.00093	 0.03644	 1.3895	 867.0	 867.0	 867.0	 0.0	 0.0	 1	 -30.0	 30.0;
	3901	 8002	 2e-05	 -0.01331	 0.0	 2374.0	 2374.0	 2374.0	 0.0	 0.0	 1	 -30.0	 30.0;
	3903	 3904	 1e-05	 -0.01098	 0.0	 2877.0	 2877.0	 2877.0	 0.0	 0.0	 1	 -30.0	 30.0;
	3903	 3905	 0.00098	 0.01035	 0.0	 3039.0	 3039.0	 3039.0	 0.0	 0.0	 1	 -30.0	 30.0;
	3903	 8002	 0.00165	 0.05719	 2.4774	 553.0	 553.0	 553.0	 0.0	 0.0	 1	 -30.0	 30.0;
	3904	 3905	 0.0016	 0.01229	 0.0	 2549.0	 2549.0	 2549.0	 0.0	 0.0	 1	 -30.0	 30.0;
	3905	 3906	 0.00072	 0.00346	 0.0	 8938.0	 8938.0	 8938.0	 0.0	 0.0	 1	 -30.0	 30.0;
	3906	 4001	 0.00053	 0.00456	 0.0	 6881.0	 6881.0	 6881.0	 0.0	 0.0	 1	 -30.0	 30.0;
	3906	 4001	 0.00053	 0.00456	 0.0	 6881.0	 6881.0	 6881.0	 0.0	 0.0	 1	 -30.0	 30.0;
	3907	 3908	 0.00312	 0.02886	 0.15252	 1089.0	 1089.0	 1089.0	 0.0	 0.0	 1	 -30.0	 30.0;
	3907	 3923	 0.00312	 0.02886	 0.15252	 1089.0	 1089.0	 1089.0	 0.0	 0.0	 1	 -30.0	 30.0;
...
];

% INFO    : === Translation Options ===
% INFO    : Load Model:                  from file ./pglib_opf_case240_pserc.m.api.sol
% INFO    : Gen Active Capacity Model:   stat
% INFO    : Gen Reactive Capacity Model: al50ag
% INFO    : Gen Active Cost Model:       stat
% INFO    : 
% INFO    : === Load Replacement Notes ===
% INFO    : Bus 1002	: Pd=226.8419, Qd=-37.472 -> Pd=226.84, Qd=-37.47
% INFO    : Bus 1003	: Pd=2153.3224, Qd=366.856 -> Pd=2825.92, Qd=366.86
% INFO    : Bus 1004	: Pd=1037.9499, Qd=5.521 -> Pd=1362.16, Qd=5.52
% INFO    : Bus 1101	: Pd=4527.3661, Qd=-137.044 -> Pd=4527.37, Qd=-137.04
% INFO    : Bus 1102	: Pd=176.4436, Qd=23.004 -> Pd=231.56, Qd=23.00
% INFO    : Bus 1201	: Pd=166.9882, Qd=-2.012 -> Pd=166.99, Qd=-2.01
% INFO    : Bus 1202	: Pd=875.61, Qd=287.131 -> Pd=1149.11, Qd=287.13
% INFO    : Bus 1301	: Pd=2704.7793, Qd=352.826 -> Pd=3549.63, Qd=352.83
% INFO    : Bus 1302	: Pd=17.5556, Qd=2.304 -> Pd=23.04, Qd=2.30
% INFO    : Bus 1303	: Pd=6235.136, Qd=813.349 -> Pd=8182.71, Qd=813.35
% INFO    : Bus 1401	: Pd=6535.5365, Qd=1524.594 -> Pd=8576.94, Qd=1524.59
% INFO    : Bus 1402	: Pd=5366.6305, Qd=-600.162 -> Pd=5366.63, Qd=-600.16
% INFO    : Bus 2000	: Pd=2207.188, Qd=287.916 -> Pd=2896.61, Qd=287.92
% INFO    : Bus 2100	: Pd=281.1513, Qd=54.83 -> Pd=368.97, Qd=54.83
% INFO    : Bus 2202	: Pd=1545.949, Qd=268.565 -> Pd=2028.83, Qd=268.56
% INFO    : Bus 2203	: Pd=1708.5525, Qd=278.273 -> Pd=2242.23, Qd=278.27
% INFO    : Bus 2400	: Pd=843.2926, Qd=76.663 -> Pd=1106.70, Qd=76.66
% INFO    : Bus 2401	: Pd=882.3636, Qd=105.214 -> Pd=1157.97, Qd=105.21
% INFO    : Bus 2402	: Pd=1080.0201, Qd=81.979 -> Pd=1417.37, Qd=81.98
% INFO    : Bus 2403	: Pd=1050.004, Qd=38.543 -> Pd=1377.98, Qd=38.54
% INFO    : Bus 2405	: Pd=824.6826, Qd=22.901 -> Pd=1082.28, Qd=22.90
% INFO    : Bus 2406	: Pd=737.4036, Qd=-40.751 -> Pd=737.40, Qd=-40.75
% INFO    : Bus 2407	: Pd=1732.771, Qd=-36.535 -> Pd=1732.77, Qd=-36.53
% INFO    : Bus 2408	: Pd=1743.2768, Qd=-72.623 -> Pd=1743.28, Qd=-72.62
% INFO    : Bus 2409	: Pd=1601.7777, Qd=-86.698 -> Pd=1601.78, Qd=-86.70
% INFO    : Bus 2410	: Pd=1576.7872, Qd=58.184 -> Pd=2069.30, Qd=58.18
% INFO    : Bus 2411	: Pd=1087.6239, Qd=75.955 -> Pd=1427.35, Qd=75.95
% INFO    : Bus 2502	: Pd=2369.1531, Qd=-91.905 -> Pd=2369.15, Qd=-91.91
% INFO    : Bus 2503	: Pd=1845.9256, Qd=201.991 -> Pd=2422.51, Qd=201.99
% INFO    : Bus 2600	: Pd=-1863.9044, Qd=0.0 -> Pd=-1863.90, Qd=0.00
% INFO    : Bus 2602	: Pd=99.2784, Qd=12.955 -> Pd=130.29, Qd=12.96
% INFO    : Bus 2604	: Pd=2050.7816, Qd=0.0 -> Pd=2050.78, Qd=0.00
% INFO    : Bus 2608	: Pd=99.2784, Qd=12.955 -> Pd=130.29, Qd=12.96
% INFO    : Bus 2609	: Pd=134.0261, Qd=26.805 -> Pd=175.89, Qd=26.80
% INFO    : Bus 2610	: Pd=99.2784, Qd=12.955 -> Pd=130.29, Qd=12.96
% INFO    : Bus 2611	: Pd=99.2784, Qd=12.955 -> Pd=130.29, Qd=12.96
% INFO    : Bus 2612	: Pd=120.1277, Qd=24.819 -> Pd=157.65, Qd=24.82
% INFO    : Bus 2613	: Pd=317.693, Qd=64.532 -> Pd=416.93, Qd=64.53
% INFO    : Bus 2614	: Pd=137.0047, Qd=27.798 -> Pd=179.80, Qd=27.80
% INFO    : Bus 2615	: Pd=801.9756, Qd=131.148 -> Pd=1052.48, Qd=131.15
% INFO    : Bus 2616	: Pd=116.1565, Qd=23.827 -> Pd=152.44, Qd=23.83
% INFO    : Bus 2617	: Pd=120.1277, Qd=24.819 -> Pd=157.65, Qd=24.82
% INFO    : Bus 2618	: Pd=881.2994, Qd=-6.155 -> Pd=881.30, Qd=-6.16
% INFO    : Bus 2619	: Pd=-2773.8339, Qd=0.0 -> Pd=-2773.83, Qd=0.00
% INFO    : Bus 2620	: Pd=203.7206, Qd=17.473 -> Pd=267.35, Qd=17.47
% INFO    : Bus 2621	: Pd=235.4897, Qd=-62.745 -> Pd=235.49, Qd=-62.74
% INFO    : Bus 3101	: Pd=341.3057, Qd=52.828 -> Pd=447.91, Qd=52.83
% INFO    : Bus 3102	: Pd=159.4648, Qd=24.929 -> Pd=209.27, Qd=24.93
% INFO    : Bus 3103	: Pd=419.6109, Qd=59.777 -> Pd=550.68, Qd=59.78
% INFO    : Bus 3104	: Pd=309.9718, Qd=40.133 -> Pd=406.79, Qd=40.13
% INFO    : Bus 3105	: Pd=239.3018, Qd=49.091 -> Pd=314.05, Qd=49.09
% INFO    : Bus 3201	: Pd=462.4769, Qd=97.849 -> Pd=606.93, Qd=97.85
% INFO    : Bus 3202	: Pd=586.1795, Qd=83.473 -> Pd=769.28, Qd=83.47
% INFO    : Bus 3203	: Pd=657.1046, Qd=158.476 -> Pd=862.35, Qd=158.48
% INFO    : Bus 3204	: Pd=668.7879, Qd=95.313 -> Pd=877.69, Qd=95.31
% INFO    : Bus 3205	: Pd=546.0609, Qd=77.782 -> Pd=716.63, Qd=77.78
% INFO    : Bus 3302	: Pd=345.3259, Qd=85.791 -> Pd=453.19, Qd=85.79
% INFO    : Bus 3303	: Pd=625.4106, Qd=150.715 -> Pd=820.76, Qd=150.72
% INFO    : Bus 3304	: Pd=533.4822, Qd=122.616 -> Pd=700.12, Qd=122.62
...